data_U2_N0_OV0_1
_audit_creation_date              2022-02-16
_audit_creation_method            'Materials Studio'
_symmetry_space_group_name_H-M    'P1'
_symmetry_Int_Tables_number       1
_symmetry_cell_setting            triclinic
loop_
_symmetry_equiv_pos_as_xyz
  x,y,z
_cell_length_a                    11.6360
_cell_length_b                    15.8100
_cell_length_c                    11.6360
_cell_angle_alpha                 90.0000
_cell_angle_beta                  90.0000
_cell_angle_gamma                 90.0000
loop_
_atom_site_label
_atom_site_type_symbol
_atom_site_fract_x
_atom_site_fract_y
_atom_site_fract_z
_atom_site_U_iso_or_equiv
_atom_site_adp_type
_atom_site_occupancy
O1     O     0.00152   0.13039   0.18577   0.00000  Uiso   1.00
O2     O     0.16520   0.00074   0.18939   0.00000  Uiso   1.00
O3     O     0.15975   0.13997   0.01092   0.00000  Uiso   1.00
O4     O     0.00194   0.37156   0.18443   0.00000  Uiso   1.00
O5     O     0.18048   0.25066   0.17284   0.00000  Uiso   1.00
O6     O     0.16264   0.35978   0.01065   0.00000  Uiso   1.00
O7     O     0.33524   0.11991   0.17712   0.00000  Uiso   1.00
O8     O     0.50391   0.00084   0.17955   0.00000  Uiso   1.00
O9     O     0.51095   0.14171   0.01102   0.00000  Uiso   1.00
O10    O     0.33532   0.38094   0.18063   0.00000  Uiso   1.00
O11    O     0.47563   0.25044   0.17701   0.00000  Uiso   1.00
O12    O     0.50776   0.35858   0.01114   0.00000  Uiso   1.00
O13    O     0.84012   0.00117   0.17559   0.00000  Uiso   1.00
O14    O     0.83454   0.12577   0.00941   0.00000  Uiso   1.00
O15    O     0.66904   0.35218   0.17763   0.00000  Uiso   1.00
O16    O     0.85120   0.25123   0.16704   0.00000  Uiso   1.00
O17    O     0.83482   0.37672   0.00958   0.00000  Uiso   1.00
O18    O     0.00440   0.12518   0.51816   0.00000  Uiso   1.00
O19    O     0.17770   0.00109   0.50845   0.00000  Uiso   1.00
O20    O     0.16644   0.14801   0.34439   0.00000  Uiso   1.00
O21    O     0.00407   0.37743   0.51779   0.00000  Uiso   1.00
O22    O     0.15845   0.25106   0.53339   0.00000  Uiso   1.00
O23    O     0.16592   0.35374   0.34454   0.00000  Uiso   1.00
O24    O     0.33548   0.14072   0.50316   0.00000  Uiso   1.00
O25    O     0.48534   0.00120   0.50983   0.00000  Uiso   1.00
O26    O     0.50762   0.14259   0.34426   0.00000  Uiso   1.00
O27    O     0.33530   0.36194   0.50458   0.00000  Uiso   1.00
O28    O     0.50641   0.25107   0.52817   0.00000  Uiso   1.00
O29    O     0.50779   0.35912   0.34442   0.00000  Uiso   1.00
O30    O     0.66843   0.13797   0.51904   0.00000  Uiso   1.00
O31    O     0.84094   0.00138   0.52198   0.00000  Uiso   1.00
O32    O     0.83166   0.13703   0.34504   0.00000  Uiso   1.00
O33    O     0.66879   0.36473   0.51839   0.00000  Uiso   1.00
O34    O     0.84814   0.25149   0.50088   0.00000  Uiso   1.00
O35    O     0.83181   0.36568   0.34457   0.00000  Uiso   1.00
O36    O     0.00173   0.13928   0.83790   0.00000  Uiso   1.00
O37    O     0.19878   0.00082   0.85236   0.00000  Uiso   1.00
O38    O     0.19209   0.11933   0.67911   0.00000  Uiso   1.00
O39    O     0.00328   0.36136   0.83977   0.00000  Uiso   1.00
O40    O     0.16950   0.24896   0.82582   0.00000  Uiso   1.00
O41    O     0.18888   0.38176   0.67952   0.00000  Uiso   1.00
O42    O     0.33653   0.13706   0.86473   0.00000  Uiso   1.00
O43    O     0.48208   0.00089   0.84888   0.00000  Uiso   1.00
O44    O     0.47626   0.12227   0.67825   0.00000  Uiso   1.00
O45    O     0.33582   0.35883   0.85619   0.00000  Uiso   1.00
O46    O     0.51541   0.25030   0.82800   0.00000  Uiso   1.00
O47    O     0.47967   0.37957   0.67793   0.00000  Uiso   1.00
O48    O     0.66682   0.12220   0.83004   0.00000  Uiso   1.00
O49    O     0.83337   0.00101   0.83939   0.00000  Uiso   1.00
O50    O     0.83630   0.14899   0.67708   0.00000  Uiso   1.00
O51    O     0.66618   0.37869   0.83258   0.00000  Uiso   1.00
O52    O     0.82187   0.25101   0.86120   0.00000  Uiso   1.00
O53    O     0.83643   0.35451   0.67755   0.00000  Uiso   1.00
O54    O     0.66948   0.15026   0.17853   0.00000  Uiso   1.00
La55   La    0.99902   0.25133   0.00996   0.00000  Uiso   1.00
La56   La    0.33472   0.25156   0.01413   0.00000  Uiso   1.00
La57   La    0.67157   0.25162   0.01073   0.00000  Uiso   1.00
La58   La    0.99653   0.25090   0.34169   0.00000  Uiso   1.00
La59   La    0.33836   0.25107   0.33791   0.00000  Uiso   1.00
La60   La    0.66959   0.25109   0.34930   0.00000  Uiso   1.00
La61   La    0.00088   0.25223   0.67138   0.00000  Uiso   1.00
La62   La    0.33470   0.00119   0.66695   0.00000  Uiso   1.00
La63   La    0.33524   0.25241   0.67384   0.00000  Uiso   1.00
La64   La    0.66972   0.25241   0.67616   0.00000  Uiso   1.00
Ti65   Ti    0.16806   0.12229   0.17289   0.00000  Uiso   1.00
Ti66   Ti    0.16835   0.37985   0.17360   0.00000  Uiso   1.00
Ti67   Ti    0.50613   0.12074   0.17424   0.00000  Uiso   1.00
Ti68   Ti    0.50559   0.38195   0.17578   0.00000  Uiso   1.00
Ti69   Ti    0.83145   0.12194   0.17946   0.00000  Uiso   1.00
Ti70   Ti    0.83139   0.38051   0.17950   0.00000  Uiso   1.00
Ti71   Ti    0.16946   0.37922   0.50219   0.00000  Uiso   1.00
Ti72   Ti    0.50442   0.12093   0.50449   0.00000  Uiso   1.00
Ti73   Ti    0.50481   0.38201   0.50554   0.00000  Uiso   1.00
Ti74   Ti    0.83244   0.11964   0.51035   0.00000  Uiso   1.00
Ti75   Ti    0.83276   0.38326   0.50989   0.00000  Uiso   1.00
Ti76   Ti    0.16575   0.12471   0.84152   0.00000  Uiso   1.00
Ti77   Ti    0.16841   0.38321   0.84407   0.00000  Uiso   1.00
Ti78   Ti    0.50318   0.12562   0.84311   0.00000  Uiso   1.00
Ti79   Ti    0.50111   0.38029   0.84613   0.00000  Uiso   1.00
Ti80   Ti    0.83771   0.12219   0.83849   0.00000  Uiso   1.00
Ti81   Ti    0.83882   0.38051   0.83934   0.00000  Uiso   1.00
Ti82   Ti    0.16967   0.12366   0.50188   0.00000  Uiso   1.00
Li83   Li    0.33845   0.02077   0.94545   0.00000  Uiso   1.00
Li84   Li    0.00257   0.00106   0.22145   0.00000  Uiso   1.00
Li85   Li    0.33455   0.00102   0.22924   0.00000  Uiso   1.00
Li86   Li    0.84050   0.00150   0.00851   0.00000  Uiso   1.00
Li87   Li    0.00705   0.00143   0.55213   0.00000  Uiso   1.00
Li88   Li    0.66634   0.00049   0.80099   0.00000  Uiso   1.00
O89    O     0.00152   0.63040   0.18577   0.00000  Uiso   1.00
O90    O     0.16520   0.50074   0.18939   0.00000  Uiso   1.00
O91    O     0.15975   0.63997   0.01092   0.00000  Uiso   1.00
O92    O     0.00194   0.87155   0.18443   0.00000  Uiso   1.00
O93    O     0.18048   0.75066   0.17284   0.00000  Uiso   1.00
O94    O     0.16264   0.85978   0.01065   0.00000  Uiso   1.00
O95    O     0.33524   0.61991   0.17712   0.00000  Uiso   1.00
O96    O     0.50391   0.50084   0.17955   0.00000  Uiso   1.00
O97    O     0.51095   0.64171   0.01102   0.00000  Uiso   1.00
O98    O     0.33532   0.88094   0.18063   0.00000  Uiso   1.00
O99    O     0.47563   0.75044   0.17701   0.00000  Uiso   1.00
O100   O     0.50776   0.85859   0.01114   0.00000  Uiso   1.00
O101   O     0.84012   0.50117   0.17559   0.00000  Uiso   1.00
O102   O     0.83454   0.62577   0.00941   0.00000  Uiso   1.00
O103   O     0.66904   0.85218   0.17763   0.00000  Uiso   1.00
O104   O     0.85120   0.75123   0.16704   0.00000  Uiso   1.00
O105   O     0.83482   0.87672   0.00958   0.00000  Uiso   1.00
O106   O     0.00440   0.62518   0.51816   0.00000  Uiso   1.00
O107   O     0.17770   0.50109   0.50845   0.00000  Uiso   1.00
O108   O     0.16644   0.64801   0.34439   0.00000  Uiso   1.00
O109   O     0.00407   0.87743   0.51779   0.00000  Uiso   1.00
O110   O     0.15845   0.75106   0.53339   0.00000  Uiso   1.00
O111   O     0.16592   0.85374   0.34454   0.00000  Uiso   1.00
O112   O     0.33548   0.64072   0.50316   0.00000  Uiso   1.00
O113   O     0.48534   0.50119   0.50983   0.00000  Uiso   1.00
O114   O     0.50762   0.64260   0.34426   0.00000  Uiso   1.00
O115   O     0.33530   0.86194   0.50458   0.00000  Uiso   1.00
O116   O     0.50641   0.75107   0.52817   0.00000  Uiso   1.00
O117   O     0.50779   0.85911   0.34442   0.00000  Uiso   1.00
O118   O     0.66843   0.63797   0.51904   0.00000  Uiso   1.00
O119   O     0.84094   0.50138   0.52198   0.00000  Uiso   1.00
O120   O     0.83166   0.63704   0.34504   0.00000  Uiso   1.00
O121   O     0.66879   0.86472   0.51839   0.00000  Uiso   1.00
O122   O     0.84814   0.75149   0.50088   0.00000  Uiso   1.00
O123   O     0.83181   0.86568   0.34457   0.00000  Uiso   1.00
O124   O     0.00173   0.63927   0.83790   0.00000  Uiso   1.00
O125   O     0.19878   0.50082   0.85236   0.00000  Uiso   1.00
O126   O     0.19209   0.61933   0.67911   0.00000  Uiso   1.00
O127   O     0.00328   0.86137   0.83977   0.00000  Uiso   1.00
O128   O     0.16950   0.74896   0.82582   0.00000  Uiso   1.00
O129   O     0.18888   0.88176   0.67952   0.00000  Uiso   1.00
O130   O     0.33653   0.63706   0.86473   0.00000  Uiso   1.00
O131   O     0.48208   0.50089   0.84888   0.00000  Uiso   1.00
O132   O     0.47626   0.62227   0.67825   0.00000  Uiso   1.00
O133   O     0.33582   0.85883   0.85619   0.00000  Uiso   1.00
O134   O     0.51541   0.75030   0.82800   0.00000  Uiso   1.00
O135   O     0.47967   0.87957   0.67793   0.00000  Uiso   1.00
O136   O     0.66682   0.62221   0.83004   0.00000  Uiso   1.00
O137   O     0.83337   0.50101   0.83939   0.00000  Uiso   1.00
O138   O     0.83630   0.64898   0.67708   0.00000  Uiso   1.00
O139   O     0.66618   0.87869   0.83258   0.00000  Uiso   1.00
O140   O     0.82187   0.75101   0.86120   0.00000  Uiso   1.00
O141   O     0.83643   0.85450   0.67755   0.00000  Uiso   1.00
O142   O     0.66948   0.65026   0.17853   0.00000  Uiso   1.00
La143  La    0.99902   0.75133   0.00996   0.00000  Uiso   1.00
La144  La    0.33472   0.75156   0.01413   0.00000  Uiso   1.00
La145  La    0.67157   0.75162   0.01073   0.00000  Uiso   1.00
La146  La    0.99653   0.75090   0.34169   0.00000  Uiso   1.00
La147  La    0.33836   0.75108   0.33791   0.00000  Uiso   1.00
La148  La    0.66959   0.75109   0.34930   0.00000  Uiso   1.00
La149  La    0.00088   0.75223   0.67138   0.00000  Uiso   1.00
La150  La    0.33470   0.50119   0.66695   0.00000  Uiso   1.00
La151  La    0.33524   0.75241   0.67384   0.00000  Uiso   1.00
La152  La    0.66972   0.75241   0.67616   0.00000  Uiso   1.00
Ti153  Ti    0.16806   0.62228   0.17289   0.00000  Uiso   1.00
Ti154  Ti    0.16835   0.87986   0.17360   0.00000  Uiso   1.00
Ti155  Ti    0.50613   0.62074   0.17424   0.00000  Uiso   1.00
Ti156  Ti    0.50559   0.88195   0.17578   0.00000  Uiso   1.00
Ti157  Ti    0.83145   0.62194   0.17946   0.00000  Uiso   1.00
Ti158  Ti    0.83139   0.88051   0.17950   0.00000  Uiso   1.00
Ti159  Ti    0.16946   0.87922   0.50219   0.00000  Uiso   1.00
Ti160  Ti    0.50442   0.62092   0.50449   0.00000  Uiso   1.00
Ti161  Ti    0.50481   0.88201   0.50554   0.00000  Uiso   1.00
Ti162  Ti    0.83244   0.61964   0.51035   0.00000  Uiso   1.00
Ti163  Ti    0.83276   0.88325   0.50989   0.00000  Uiso   1.00
Ti164  Ti    0.16575   0.62471   0.84152   0.00000  Uiso   1.00
Ti165  Ti    0.16841   0.88321   0.84407   0.00000  Uiso   1.00
Ti166  Ti    0.50318   0.62562   0.84311   0.00000  Uiso   1.00
Ti167  Ti    0.50111   0.88029   0.84613   0.00000  Uiso   1.00
Ti168  Ti    0.83771   0.62220   0.83849   0.00000  Uiso   1.00
Ti169  Ti    0.83882   0.88052   0.83934   0.00000  Uiso   1.00
Ti170  Ti    0.16967   0.62366   0.50188   0.00000  Uiso   1.00
Li171  Li    0.33845   0.52077   0.94545   0.00000  Uiso   1.00
Li172  Li    0.00257   0.50106   0.22145   0.00000  Uiso   1.00
Li173  Li    0.33455   0.50102   0.22924   0.00000  Uiso   1.00
Li174  Li    0.84050   0.50150   0.00851   0.00000  Uiso   1.00
Li175  Li    0.00705   0.50143   0.55213   0.00000  Uiso   1.00
Li176  Li    0.66634   0.50048   0.80099   0.00000  Uiso   1.00
loop_
_geom_bond_atom_site_label_1
_geom_bond_atom_site_label_2
_geom_bond_distance
_geom_bond_site_symmetry_2
_ccdc_geom_bond_type
O1     Ti65    1.948   .     S
O1     Ti69    1.985   1_455 S
O2     Ti65    1.932   .     S
O2     Ti154   1.920   1_545 S
O3     Ti65    1.908   .     S
O3     Ti76    1.987   1_554 S
O4     Ti66    1.945   .     S
O4     Ti70    1.990   1_455 S
O5     Ti65    2.035   .     S
O5     Ti66    2.047   .     S
O6     Ti66    1.924   .     S
O6     Ti77    1.975   1_554 S
O7     Ti65    1.946   .     S
O7     Ti67    1.989   .     S
O8     Ti67    1.897   .     S
O8     Ti156   1.880   1_545 S
O9     Ti67    1.929   .     S
O9     Ti78    1.972   1_554 S
O10    Ti66    1.945   .     S
O10    Ti68    1.982   .     S
O11    Ti67    2.081   .     S
O11    Ti68    2.108   .     S
O12    Ti68    1.951   .     S
O12    Ti79    1.952   1_554 S
O13    Ti69    1.913   .     S
O13    Ti158   1.911   1_545 S
O14    Ti69    1.980   .     S
O14    Ti80    1.990   1_554 S
O15    Ti68    1.959   .     S
O15    Ti70    1.942   .     S
O16    Ti69    2.062   .     S
O16    Ti70    2.062   .     S
O17    Ti70    1.979   .     S
O17    Ti81    1.982   1_554 S
O18    Ti74    2.005   1_455 S
O18    Ti82    1.933   .     S
O19    Ti159   1.931   1_545 S
O19    Ti82    1.942   .     S
O20    Ti65    2.037   .     S
O20    Ti82    1.873   .     S
O21    Ti71    1.933   .     S
O21    Ti75    1.998   1_455 S
O22    Ti71    2.062   .     S
O22    Ti82    2.052   .     S
O23    Ti66    2.032   .     S
O23    Ti71    1.879   .     S
O24    Ti72    1.991   .     S
O24    Ti82    1.948   .     S
O25    Ti72    1.907   .     S
O25    Ti161   1.898   1_545 S
O26    Ti67    2.008   .     S
O26    Ti72    1.896   .     S
O27    Ti71    1.949   .     S
O27    Ti73    1.998   .     S
O28    Ti72    2.076   .     S
O28    Ti73    2.087   .     S
O29    Ti68    1.995   .     S
O29    Ti73    1.910   .     S
O30    Ti72    1.935   .     S
O30    Ti74    1.933   .     S
O31    Ti74    1.877   .     S
O31    Ti163   1.875   1_545 S
O32    Ti69    1.941   .     S
O32    Ti74    1.943   .     S
O33    Ti73    1.933   .     S
O33    Ti75    1.933   .     S
O34    Ti74    2.096   .     S
O34    Ti75    2.094   .     S
O35    Ti70    1.935   .     S
O35    Ti75    1.944   .     S
O36    Ti76    1.923   .     S
O36    Ti80    1.928   1_455 S
O37    Ti76    2.000   .     S
O37    Ti165   1.895   1_545 S
O38    Ti76    1.916   .     S
O38    Ti82    2.080   .     S
O39    Ti77    1.953   .     S
O39    Ti81    1.937   1_455 S
O40    Ti76    1.973   .     S
O40    Ti77    2.133   .     S
O41    Ti71    2.076   .     S
O41    Ti77    1.930   .     S
O42    Ti76    2.015   .     S
O42    Ti78    1.964   .     S
O43    Ti78    1.988   .     S
O43    Ti167   1.920   1_545 S
O44    Ti72    2.048   .     S
O44    Ti78    1.944   .     S
O45    Ti77    1.991   .     S
O45    Ti79    1.957   .     S
O46    Ti78    1.984   .     S
O46    Ti79    2.073   .     S
O47    Ti73    2.028   .     S
O47    Ti79    1.973   .     S
O48    Ti78    1.911   .     S
O48    Ti80    1.991   .     S
O49    Ti80    1.917   .     S
O49    Ti169   1.906   1_545 S
O50    Ti74    1.995   .     S
O50    Ti80    1.925   .     S
O51    Ti79    1.927   .     S
O51    Ti81    2.011   .     S
O52    Ti80    2.062   .     S
O52    Ti81    2.073   .     S
O53    Ti75    2.004   .     S
O53    Ti81    1.927   .     S
O54    Ti67    1.958   .     S
O54    Ti69    1.937   .     S
Ti66   O90     1.920   .     S
Ti68   O96     1.880   .     S
Ti69   O1      1.985   1_655 S
Ti70   O101    1.911   .     S
Ti70   O4      1.990   1_655 S
Ti71   O107    1.931   .     S
Ti73   O113    1.898   .     S
Ti74   O18     2.005   1_655 S
Ti75   O119    1.875   .     S
Ti75   O21     1.998   1_655 S
Ti76   O3      1.987   1_556 S
Ti77   O125    1.895   .     S
Ti77   O6      1.975   1_556 S
Ti78   O9      1.972   1_556 S
Ti79   O131    1.920   .     S
Ti79   O12     1.952   1_556 S
Ti80   O36     1.928   1_655 S
Ti80   O14     1.990   1_556 S
Ti81   O137    1.906   .     S
Ti81   O39     1.937   1_655 S
Ti81   O17     1.982   1_556 S
O89    Ti153   1.948   .     S
O89    Ti157   1.985   1_455 S
O90    Ti153   1.932   .     S
O91    Ti153   1.908   .     S
O91    Ti164   1.987   1_554 S
O92    Ti154   1.945   .     S
O92    Ti158   1.990   1_455 S
O93    Ti153   2.035   .     S
O93    Ti154   2.047   .     S
O94    Ti154   1.924   .     S
O94    Ti165   1.975   1_554 S
O95    Ti153   1.946   .     S
O95    Ti155   1.989   .     S
O96    Ti155   1.897   .     S
O97    Ti155   1.929   .     S
O97    Ti166   1.972   1_554 S
O98    Ti154   1.945   .     S
O98    Ti156   1.982   .     S
O99    Ti155   2.081   .     S
O99    Ti156   2.108   .     S
O100   Ti156   1.951   .     S
O100   Ti167   1.952   1_554 S
O101   Ti157   1.913   .     S
O102   Ti157   1.980   .     S
O102   Ti168   1.990   1_554 S
O103   Ti156   1.959   .     S
O103   Ti158   1.942   .     S
O104   Ti157   2.062   .     S
O104   Ti158   2.062   .     S
O105   Ti158   1.979   .     S
O105   Ti169   1.982   1_554 S
O106   Ti162   2.005   1_455 S
O106   Ti170   1.933   .     S
O107   Ti170   1.942   .     S
O108   Ti153   2.037   .     S
O108   Ti170   1.873   .     S
O109   Ti159   1.933   .     S
O109   Ti163   1.998   1_455 S
O110   Ti159   2.062   .     S
O110   Ti170   2.052   .     S
O111   Ti154   2.032   .     S
O111   Ti159   1.879   .     S
O112   Ti160   1.991   .     S
O112   Ti170   1.948   .     S
O113   Ti160   1.907   .     S
O114   Ti155   2.008   .     S
O114   Ti160   1.896   .     S
O115   Ti159   1.949   .     S
O115   Ti161   1.998   .     S
O116   Ti160   2.076   .     S
O116   Ti161   2.087   .     S
O117   Ti156   1.995   .     S
O117   Ti161   1.910   .     S
O118   Ti160   1.935   .     S
O118   Ti162   1.933   .     S
O119   Ti162   1.877   .     S
O120   Ti157   1.941   .     S
O120   Ti162   1.943   .     S
O121   Ti161   1.933   .     S
O121   Ti163   1.933   .     S
O122   Ti162   2.096   .     S
O122   Ti163   2.094   .     S
O123   Ti158   1.935   .     S
O123   Ti163   1.944   .     S
O124   Ti164   1.923   .     S
O124   Ti168   1.928   1_455 S
O125   Ti164   2.000   .     S
O126   Ti164   1.916   .     S
O126   Ti170   2.080   .     S
O127   Ti165   1.953   .     S
O127   Ti169   1.937   1_455 S
O128   Ti164   1.973   .     S
O128   Ti165   2.133   .     S
O129   Ti159   2.076   .     S
O129   Ti165   1.930   .     S
O130   Ti164   2.015   .     S
O130   Ti166   1.964   .     S
O131   Ti166   1.988   .     S
O132   Ti160   2.048   .     S
O132   Ti166   1.944   .     S
O133   Ti165   1.991   .     S
O133   Ti167   1.957   .     S
O134   Ti166   1.984   .     S
O134   Ti167   2.073   .     S
O135   Ti161   2.028   .     S
O135   Ti167   1.973   .     S
O136   Ti166   1.911   .     S
O136   Ti168   1.991   .     S
O137   Ti168   1.917   .     S
O138   Ti162   1.995   .     S
O138   Ti168   1.925   .     S
O139   Ti167   1.927   .     S
O139   Ti169   2.011   .     S
O140   Ti168   2.062   .     S
O140   Ti169   2.073   .     S
O141   Ti163   2.004   .     S
O141   Ti169   1.927   .     S
O142   Ti155   1.958   .     S
O142   Ti157   1.937   .     S
Ti154  O2      1.920   1_565 S
Ti156  O8      1.880   1_565 S
Ti157  O89     1.985   1_655 S
Ti158  O13     1.911   1_565 S
Ti158  O92     1.990   1_655 S
Ti159  O19     1.931   1_565 S
Ti161  O25     1.898   1_565 S
Ti162  O106    2.005   1_655 S
Ti163  O31     1.875   1_565 S
Ti163  O109    1.998   1_655 S
Ti164  O91     1.987   1_556 S
Ti165  O37     1.895   1_565 S
Ti165  O94     1.975   1_556 S
Ti166  O97     1.972   1_556 S
Ti167  O43     1.920   1_565 S
Ti167  O100    1.952   1_556 S
Ti168  O124    1.928   1_655 S
Ti168  O102    1.990   1_556 S
Ti169  O49     1.906   1_565 S
Ti169  O127    1.937   1_655 S
Ti169  O105    1.982   1_556 S
