data_LLTO_U2_N3_OV0_06
_audit_creation_date              2022-04-06
_audit_creation_method            'Materials Studio'
_symmetry_space_group_name_H-M    'P1'
_symmetry_Int_Tables_number       1
_symmetry_cell_setting            triclinic
loop_
_symmetry_equiv_pos_as_xyz
  x,y,z
_cell_length_a                    11.6360
_cell_length_b                    15.8100
_cell_length_c                    11.6360
_cell_angle_alpha                 90.0000
_cell_angle_beta                  90.0000
_cell_angle_gamma                 90.0000
loop_
_atom_site_label
_atom_site_type_symbol
_atom_site_fract_x
_atom_site_fract_y
_atom_site_fract_z
_atom_site_U_iso_or_equiv
_atom_site_adp_type
_atom_site_occupancy
Li1    Li    0.33658   0.02361   0.94707   0.00000  Uiso   1.00
Li2    Li    0.00398   0.99368   0.22687   0.00000  Uiso   1.00
Li3    Li    0.33727   0.99884   0.23225   0.00000  Uiso   1.00
Li4    Li    0.84021   0.00106   0.00851   0.00000  Uiso   1.00
Li5    Li    0.00741   0.00142   0.55108   0.00000  Uiso   1.00
Li6    Li    0.66785   0.00005   0.79587   0.00000  Uiso   1.00
Li7    Li    0.33954   0.52190   0.94631   0.00000  Uiso   1.00
Li8    Li    0.00221   0.50275   0.21885   0.00000  Uiso   1.00
Li9    Li    0.33385   0.50061   0.22834   0.00000  Uiso   1.00
Li10   Li    0.83476   0.50166   0.00860   0.00000  Uiso   1.00
Li11   Li    0.00781   0.50115   0.54941   0.00000  Uiso   1.00
Li12   Li    0.66653   0.50139   0.79717   0.00000  Uiso   1.00
La13   La    0.99620   0.25485   0.00773   0.00000  Uiso   1.00
La14   La    0.33948   0.25304   0.01389   0.00000  Uiso   1.00
La15   La    0.67091   0.25220   0.01064   0.00000  Uiso   1.00
La16   La    0.99510   0.25354   0.34518   0.00000  Uiso   1.00
La17   La    0.34199   0.24994   0.34050   0.00000  Uiso   1.00
La18   La    0.66966   0.25140   0.35020   0.00000  Uiso   1.00
La19   La    0.00048   0.25259   0.67195   0.00000  Uiso   1.00
La20   La    0.33370   0.00128   0.66750   0.00000  Uiso   1.00
La21   La    0.33482   0.25175   0.67445   0.00000  Uiso   1.00
La22   La    0.67027   0.25213   0.67598   0.00000  Uiso   1.00
La23   La    0.99967   0.75137   0.01018   0.00000  Uiso   1.00
La24   La    0.33500   0.75140   0.01433   0.00000  Uiso   1.00
La25   La    0.67108   0.75101   0.01058   0.00000  Uiso   1.00
La26   La    0.99672   0.75041   0.34226   0.00000  Uiso   1.00
La27   La    0.33879   0.75061   0.33823   0.00000  Uiso   1.00
La28   La    0.66916   0.75088   0.34961   0.00000  Uiso   1.00
La29   La    0.00149   0.75246   0.67201   0.00000  Uiso   1.00
La30   La    0.33449   0.50169   0.66698   0.00000  Uiso   1.00
La31   La    0.33476   0.75248   0.67438   0.00000  Uiso   1.00
La32   La    0.66956   0.75273   0.67643   0.00000  Uiso   1.00
Ti33   Ti    0.17168   0.12041   0.17689   0.00000  Uiso   1.00
Ti34   Ti    0.16682   0.38028   0.17244   0.00000  Uiso   1.00
Ti35   Ti    0.50715   0.11908   0.17496   0.00000  Uiso   1.00
Ti36   Ti    0.50601   0.38136   0.17640   0.00000  Uiso   1.00
Ti37   Ti    0.82913   0.12099   0.17937   0.00000  Uiso   1.00
Ti38   Ti    0.83148   0.38144   0.18035   0.00000  Uiso   1.00
Ti39   Ti    0.17051   0.37877   0.50139   0.00000  Uiso   1.00
Ti40   Ti    0.50472   0.12040   0.50476   0.00000  Uiso   1.00
Ti41   Ti    0.50516   0.38259   0.50613   0.00000  Uiso   1.00
Ti42   Ti    0.83269   0.11950   0.51129   0.00000  Uiso   1.00
Ti43   Ti    0.83195   0.38428   0.51036   0.00000  Uiso   1.00
Ti44   Ti    0.16461   0.12612   0.84364   0.00000  Uiso   1.00
Ti45   Ti    0.16855   0.38320   0.84258   0.00000  Uiso   1.00
Ti46   Ti    0.50389   0.12535   0.84337   0.00000  Uiso   1.00
Ti47   Ti    0.50147   0.38079   0.84532   0.00000  Uiso   1.00
Ti48   Ti    0.83704   0.12186   0.83921   0.00000  Uiso   1.00
Ti49   Ti    0.83792   0.38146   0.83877   0.00000  Uiso   1.00
Ti50   Ti    0.16958   0.12400   0.50430   0.00000  Uiso   1.00
Ti51   Ti    0.16840   0.62243   0.17307   0.00000  Uiso   1.00
Ti52   Ti    0.16942   0.87886   0.17457   0.00000  Uiso   1.00
Ti53   Ti    0.50595   0.62016   0.17447   0.00000  Uiso   1.00
Ti54   Ti    0.50622   0.88095   0.17559   0.00000  Uiso   1.00
Ti55   Ti    0.83092   0.62235   0.17979   0.00000  Uiso   1.00
Ti56   Ti    0.83140   0.87919   0.17900   0.00000  Uiso   1.00
Ti57   Ti    0.16957   0.87918   0.50252   0.00000  Uiso   1.00
Ti58   Ti    0.50462   0.62118   0.50485   0.00000  Uiso   1.00
Ti59   Ti    0.50474   0.88185   0.50573   0.00000  Uiso   1.00
Ti60   Ti    0.83273   0.62038   0.51103   0.00000  Uiso   1.00
Ti61   Ti    0.83282   0.88312   0.50967   0.00000  Uiso   1.00
Ti62   Ti    0.16584   0.62437   0.84175   0.00000  Uiso   1.00
Ti63   Ti    0.16874   0.88379   0.84473   0.00000  Uiso   1.00
Ti64   Ti    0.50336   0.62600   0.84299   0.00000  Uiso   1.00
Ti65   Ti    0.50103   0.88067   0.84624   0.00000  Uiso   1.00
Ti66   Ti    0.83798   0.62263   0.83899   0.00000  Uiso   1.00
Ti67   Ti    0.83904   0.88033   0.83929   0.00000  Uiso   1.00
Ti68   Ti    0.16978   0.62348   0.50189   0.00000  Uiso   1.00
N69    N     0.16703   0.24769   0.17012   0.00000  Uiso   1.00
N70    N     0.00302   0.12685   0.17453   0.00000  Uiso   1.00
N71    N     0.16172   0.14063   0.01389   0.00000  Uiso   1.00
O72    O     0.16681   0.99674   0.19790   0.00000  Uiso   1.00
O73    O     0.00018   0.37739   0.18525   0.00000  Uiso   1.00
O74    O     0.16294   0.35895   0.00995   0.00000  Uiso   1.00
O75    O     0.34123   0.11814   0.18261   0.00000  Uiso   1.00
O76    O     0.50807   0.99974   0.17961   0.00000  Uiso   1.00
O77    O     0.51176   0.14103   0.01114   0.00000  Uiso   1.00
O78    O     0.33376   0.37916   0.17878   0.00000  Uiso   1.00
O79    O     0.47576   0.25159   0.17706   0.00000  Uiso   1.00
O80    O     0.50808   0.35990   0.01042   0.00000  Uiso   1.00
O81    O     0.84179   0.00062   0.17585   0.00000  Uiso   1.00
O82    O     0.82809   0.12559   0.00827   0.00000  Uiso   1.00
O83    O     0.66896   0.35194   0.17746   0.00000  Uiso   1.00
O84    O     0.85509   0.25166   0.16875   0.00000  Uiso   1.00
O85    O     0.83322   0.37661   0.00934   0.00000  Uiso   1.00
O86    O     0.00429   0.12661   0.51893   0.00000  Uiso   1.00
O87    O     0.17689   0.00105   0.50645   0.00000  Uiso   1.00
O88    O     0.16568   0.15229   0.34773   0.00000  Uiso   1.00
O89    O     0.00392   0.37599   0.51371   0.00000  Uiso   1.00
O90    O     0.15989   0.25209   0.53708   0.00000  Uiso   1.00
O91    O     0.16769   0.34998   0.34257   0.00000  Uiso   1.00
O92    O     0.33637   0.14048   0.50197   0.00000  Uiso   1.00
O93    O     0.48553   0.00104   0.51094   0.00000  Uiso   1.00
O94    O     0.51063   0.14201   0.34478   0.00000  Uiso   1.00
O95    O     0.33543   0.36229   0.50421   0.00000  Uiso   1.00
O96    O     0.50737   0.25111   0.52550   0.00000  Uiso   1.00
O97    O     0.50799   0.36024   0.34456   0.00000  Uiso   1.00
O98    O     0.66908   0.13672   0.51969   0.00000  Uiso   1.00
O99    O     0.84188   0.00131   0.52192   0.00000  Uiso   1.00
O100   O     0.83553   0.13613   0.34417   0.00000  Uiso   1.00
O101   O     0.66842   0.36640   0.51981   0.00000  Uiso   1.00
O102   O     0.84419   0.25166   0.50092   0.00000  Uiso   1.00
O103   O     0.82990   0.36653   0.34498   0.00000  Uiso   1.00
O104   O     0.00055   0.13941   0.83978   0.00000  Uiso   1.00
O105   O     0.19888   0.00102   0.85224   0.00000  Uiso   1.00
O106   O     0.19360   0.11836   0.67772   0.00000  Uiso   1.00
O107   O     0.00264   0.36326   0.83972   0.00000  Uiso   1.00
O108   O     0.16667   0.25025   0.81920   0.00000  Uiso   1.00
O109   O     0.18765   0.38499   0.67828   0.00000  Uiso   1.00
O110   O     0.33583   0.13965   0.86484   0.00000  Uiso   1.00
O111   O     0.47946   0.00123   0.84856   0.00000  Uiso   1.00
O112   O     0.47528   0.12345   0.67849   0.00000  Uiso   1.00
O113   O     0.33569   0.35737   0.85468   0.00000  Uiso   1.00
O114   O     0.51743   0.25036   0.83021   0.00000  Uiso   1.00
O115   O     0.47916   0.37843   0.67755   0.00000  Uiso   1.00
O116   O     0.66611   0.12098   0.82631   0.00000  Uiso   1.00
O117   O     0.83400   0.00087   0.83900   0.00000  Uiso   1.00
O118   O     0.83719   0.14894   0.67702   0.00000  Uiso   1.00
O119   O     0.66587   0.38010   0.83024   0.00000  Uiso   1.00
O120   O     0.81997   0.25155   0.85937   0.00000  Uiso   1.00
O121   O     0.83742   0.35535   0.67687   0.00000  Uiso   1.00
O122   O     0.66893   0.15427   0.17944   0.00000  Uiso   1.00
O123   O     0.00124   0.63065   0.18517   0.00000  Uiso   1.00
O124   O     0.16578   0.50188   0.19064   0.00000  Uiso   1.00
O125   O     0.16014   0.64027   0.01070   0.00000  Uiso   1.00
O126   O     0.00223   0.86973   0.18437   0.00000  Uiso   1.00
O127   O     0.18203   0.75001   0.17271   0.00000  Uiso   1.00
O128   O     0.16312   0.85937   0.01060   0.00000  Uiso   1.00
O129   O     0.33570   0.62001   0.17701   0.00000  Uiso   1.00
O130   O     0.50227   0.50029   0.17951   0.00000  Uiso   1.00
O131   O     0.51077   0.64067   0.01097   0.00000  Uiso   1.00
O132   O     0.33673   0.87999   0.18025   0.00000  Uiso   1.00
O133   O     0.47693   0.74994   0.17712   0.00000  Uiso   1.00
O134   O     0.50804   0.85856   0.01090   0.00000  Uiso   1.00
O135   O     0.83681   0.50194   0.17547   0.00000  Uiso   1.00
O136   O     0.83336   0.62598   0.00925   0.00000  Uiso   1.00
O137   O     0.66947   0.85140   0.17777   0.00000  Uiso   1.00
O138   O     0.85066   0.75115   0.16656   0.00000  Uiso   1.00
O139   O     0.83441   0.87679   0.00961   0.00000  Uiso   1.00
O140   O     0.00438   0.62562   0.51768   0.00000  Uiso   1.00
O141   O     0.17707   0.50068   0.50515   0.00000  Uiso   1.00
O142   O     0.16644   0.64844   0.34452   0.00000  Uiso   1.00
O143   O     0.00419   0.87688   0.51720   0.00000  Uiso   1.00
O144   O     0.15931   0.75062   0.53504   0.00000  Uiso   1.00
O145   O     0.16641   0.85140   0.34535   0.00000  Uiso   1.00
O146   O     0.33541   0.64021   0.50367   0.00000  Uiso   1.00
O147   O     0.48550   0.50141   0.51123   0.00000  Uiso   1.00
O148   O     0.50768   0.64190   0.34445   0.00000  Uiso   1.00
O149   O     0.33539   0.86217   0.50507   0.00000  Uiso   1.00
O150   O     0.50651   0.75102   0.52706   0.00000  Uiso   1.00
O151   O     0.50774   0.85923   0.34459   0.00000  Uiso   1.00
O152   O     0.66858   0.63784   0.51949   0.00000  Uiso   1.00
O153   O     0.84179   0.50184   0.52257   0.00000  Uiso   1.00
O154   O     0.83150   0.63742   0.34515   0.00000  Uiso   1.00
O155   O     0.66890   0.86493   0.51854   0.00000  Uiso   1.00
O156   O     0.84757   0.75159   0.50108   0.00000  Uiso   1.00
O157   O     0.83206   0.86579   0.34446   0.00000  Uiso   1.00
O158   O     0.00157   0.63911   0.83857   0.00000  Uiso   1.00
O159   O     0.20012   0.50063   0.85407   0.00000  Uiso   1.00
O160   O     0.19105   0.61745   0.67903   0.00000  Uiso   1.00
O161   O     0.00333   0.86128   0.84034   0.00000  Uiso   1.00
O162   O     0.16896   0.74849   0.82411   0.00000  Uiso   1.00
O163   O     0.18815   0.88228   0.67943   0.00000  Uiso   1.00
O164   O     0.33653   0.63766   0.86400   0.00000  Uiso   1.00
O165   O     0.48100   0.50098   0.84736   0.00000  Uiso   1.00
O166   O     0.47657   0.62318   0.67825   0.00000  Uiso   1.00
O167   O     0.33558   0.85801   0.85550   0.00000  Uiso   1.00
O168   O     0.51607   0.75042   0.82924   0.00000  Uiso   1.00
O169   O     0.48020   0.87880   0.67819   0.00000  Uiso   1.00
O170   O     0.66670   0.62238   0.82944   0.00000  Uiso   1.00
O171   O     0.83258   0.50146   0.83932   0.00000  Uiso   1.00
O172   O     0.83657   0.64951   0.67729   0.00000  Uiso   1.00
O173   O     0.66594   0.87939   0.83197   0.00000  Uiso   1.00
O174   O     0.82144   0.75127   0.86115   0.00000  Uiso   1.00
O175   O     0.83664   0.85468   0.67754   0.00000  Uiso   1.00
O176   O     0.66913   0.65023   0.17867   0.00000  Uiso   1.00
loop_
_geom_bond_atom_site_label_1
_geom_bond_atom_site_label_2
_geom_bond_distance
_geom_bond_site_symmetry_2
_ccdc_geom_bond_type
Ti33   N69     2.015   .     S
Ti33   N70     1.965   .     S
Ti33   N71     1.927   .     S
Ti33   O72     1.971   1_545 S
Ti33   O75     1.974   .     S
Ti33   O88     2.052   .     S
Ti34   N69     2.096   .     S
Ti34   O73     1.945   .     S
Ti34   O74     1.921   .     S
Ti34   O78     1.944   .     S
Ti34   O91     2.037   .     S
Ti34   O124    1.934   .     S
Ti35   O75     1.933   .     S
Ti35   O76     1.888   1_545 S
Ti35   O77     1.938   .     S
Ti35   O79     2.127   .     S
Ti35   O94     2.009   .     S
Ti35   O122    1.964   .     S
Ti36   O78     2.005   .     S
Ti36   O79     2.082   .     S
Ti36   O80     1.961   .     S
Ti36   O83     1.952   .     S
Ti36   O97     1.985   .     S
Ti36   O130    1.881   .     S
Ti37   N70     2.026   1_655 S
Ti37   O81     1.909   .     S
Ti37   O82     1.992   .     S
Ti37   O84     2.092   .     S
Ti37   O100    1.934   .     S
Ti37   O122    1.937   .     S
Ti38   O73     1.965   1_655 S
Ti38   O83     1.948   .     S
Ti38   O84     2.075   .     S
Ti38   O85     1.991   .     S
Ti38   O103    1.930   .     S
Ti38   O135    1.907   .     S
Ti39   O89     1.944   .     S
Ti39   O90     2.049   .     S
Ti39   O91     1.904   .     S
Ti39   O95     1.937   .     S
Ti39   O109    2.070   .     S
Ti39   O141    1.929   .     S
Ti40   O92     1.985   .     S
Ti40   O93     1.902   .     S
Ti40   O94     1.894   .     S
Ti40   O96     2.081   .     S
Ti40   O98     1.938   .     S
Ti40   O112    2.051   .     S
Ti41   O95     2.001   .     S
Ti41   O96     2.091   .     S
Ti41   O97     1.913   .     S
Ti41   O101    1.923   .     S
Ti41   O115    2.019   .     S
Ti41   O147    1.893   .     S
Ti42   O86     2.002   1_655 S
Ti42   O98     1.926   .     S
Ti42   O99     1.876   .     S
Ti42   O100    1.963   .     S
Ti42   O102    2.097   .     S
Ti42   O118    1.985   .     S
Ti43   O89     2.006   1_655 S
Ti43   O101    1.927   .     S
Ti43   O102    2.104   .     S
Ti43   O103    1.945   .     S
Ti43   O121    1.992   .     S
Ti43   O153    1.868   .     S
Ti44   N71     1.995   1_556 S
Ti44   O104    1.921   .     S
Ti44   O105    2.020   .     S
Ti44   O106    1.964   .     S
Ti44   O108    1.983   .     S
Ti44   O110    2.019   .     S
Ti45   O74     1.986   1_556 S
Ti45   O107    1.956   .     S
Ti45   O108    2.120   .     S
Ti45   O109    1.925   .     S
Ti45   O113    1.992   .     S
Ti45   O159    1.897   .     S
Ti46   O77     1.970   1_556 S
Ti46   O110    1.984   .     S
Ti46   O111    1.984   .     S
Ti46   O112    1.947   .     S
Ti46   O114    1.989   .     S
Ti46   O116    1.899   .     S
Ti47   O80     1.951   1_556 S
Ti47   O113    1.967   .     S
Ti47   O114    2.078   .     S
Ti47   O115    1.970   .     S
Ti47   O119    1.921   .     S
Ti47   O165    1.915   .     S
Ti48   O82     1.971   1_556 S
Ti48   O104    1.923   1_655 S
Ti48   O116    1.995   .     S
Ti48   O117    1.913   .     S
Ti48   O118    1.935   .     S
Ti48   O120    2.073   .     S
Ti49   O85     1.987   1_556 S
Ti49   O107    1.938   1_655 S
Ti49   O119    2.005   .     S
Ti49   O120    2.078   .     S
Ti49   O121    1.929   .     S
Ti49   O171    1.898   .     S
Ti50   O86     1.931   .     S
Ti50   O87     1.946   .     S
Ti50   O88     1.876   .     S
Ti50   O90     2.064   .     S
Ti50   O92     1.958   .     S
Ti50   O106    2.039   .     S
Ti51   O123    1.954   .     S
Ti51   O124    1.917   .     S
Ti51   O125    1.913   .     S
Ti51   O127    2.023   .     S
Ti51   O129    1.948   .     S
Ti51   O142    2.037   .     S
Ti52   O72     1.884   .     S
Ti52   O126    1.954   .     S
Ti52   O127    2.043   .     S
Ti52   O128    1.934   .     S
Ti52   O132    1.948   .     S
Ti52   O145    2.034   .     S
Ti53   O129    1.981   .     S
Ti53   O130    1.897   .     S
Ti53   O131    1.931   .     S
Ti53   O133    2.080   .     S
Ti53   O148    2.008   .     S
Ti53   O176    1.958   .     S
Ti54   O76     1.879   .     S
Ti54   O132    1.973   .     S
Ti54   O133    2.099   .     S
Ti54   O134    1.949   .     S
Ti54   O137    1.956   .     S
Ti54   O151    1.996   .     S
Ti55   O123    1.987   1_655 S
Ti55   O135    1.906   .     S
Ti55   O136    1.985   .     S
Ti55   O138    2.055   .     S
Ti55   O154    1.939   .     S
Ti55   O176    1.934   .     S
Ti56   O81     1.924   1_565 S
Ti56   O126    1.994   1_655 S
Ti56   O137    1.935   .     S
Ti56   O138    2.042   .     S
Ti56   O139    1.972   .     S
Ti56   O157    1.937   .     S
Ti57   O87     1.929   1_565 S
Ti57   O143    1.932   .     S
Ti57   O144    2.071   .     S
Ti57   O145    1.881   .     S
Ti57   O149    1.948   .     S
Ti57   O163    2.070   .     S
Ti58   O146    1.992   .     S
Ti58   O147    1.908   .     S
Ti58   O148    1.895   .     S
Ti58   O150    2.069   .     S
Ti58   O152    1.933   .     S
Ti58   O166    2.044   .     S
Ti59   O93     1.899   1_565 S
Ti59   O149    1.995   .     S
Ti59   O150    2.083   .     S
Ti59   O151    1.909   .     S
Ti59   O155    1.935   .     S
Ti59   O169    2.028   .     S
Ti60   O140    2.001   1_655 S
Ti60   O152    1.932   .     S
Ti60   O153    1.882   .     S
Ti60   O154    1.949   .     S
Ti60   O156    2.085   .     S
Ti60   O172    1.989   .     S
Ti61   O99     1.877   1_565 S
Ti61   O143    1.998   1_655 S
Ti61   O155    1.932   .     S
Ti61   O156    2.089   .     S
Ti61   O157    1.942   .     S
Ti61   O175    2.005   .     S
Ti62   O125    1.983   1_556 S
Ti62   O158    1.926   .     S
Ti62   O159    2.002   .     S
Ti62   O160    1.919   .     S
Ti62   O162    1.973   .     S
Ti62   O164    2.014   .     S
Ti63   O105    1.888   1_565 S
Ti63   O128    1.969   1_556 S
Ti63   O161    1.958   .     S
Ti63   O162    2.153   .     S
Ti63   O163    1.937   .     S
Ti63   O167    1.988   .     S
Ti64   O131    1.970   1_556 S
Ti64   O164    1.965   .     S
Ti64   O165    1.994   .     S
Ti64   O166    1.943   .     S
Ti64   O168    1.979   .     S
Ti64   O170    1.908   .     S
Ti65   O111    1.923   1_565 S
Ti65   O134    1.949   1_556 S
Ti65   O167    1.961   .     S
Ti65   O168    2.076   .     S
Ti65   O169    1.971   .     S
Ti65   O173    1.926   .     S
Ti66   O136    1.983   1_556 S
Ti66   O158    1.921   1_655 S
Ti66   O170    1.996   .     S
Ti66   O171    1.917   .     S
Ti66   O172    1.929   .     S
Ti66   O174    2.059   .     S
Ti67   O117    1.907   1_565 S
Ti67   O139    1.983   1_556 S
Ti67   O161    1.935   1_655 S
Ti67   O173    2.016   .     S
Ti67   O174    2.066   .     S
Ti67   O175    1.926   .     S
Ti68   O140    1.934   .     S
Ti68   O141    1.944   .     S
Ti68   O142    1.874   .     S
Ti68   O144    2.050   .     S
Ti68   O146    1.945   .     S
Ti68   O160    2.078   .     S
N70    Ti37    2.026   1_455 S
N71    Ti44    1.995   1_554 S
O72    Ti33    1.971   1_565 S
O73    Ti38    1.965   1_455 S
O74    Ti45    1.986   1_554 S
O76    Ti35    1.888   1_565 S
O77    Ti46    1.970   1_554 S
O80    Ti47    1.951   1_554 S
O81    Ti56    1.924   1_545 S
O82    Ti48    1.971   1_554 S
O85    Ti49    1.987   1_554 S
O86    Ti42    2.002   1_455 S
O87    Ti57    1.929   1_545 S
O89    Ti43    2.006   1_455 S
O93    Ti59    1.899   1_545 S
O99    Ti61    1.877   1_545 S
O104   Ti48    1.923   1_455 S
O105   Ti63    1.888   1_545 S
O107   Ti49    1.938   1_455 S
O111   Ti65    1.923   1_545 S
O117   Ti67    1.907   1_545 S
O123   Ti55    1.987   1_455 S
O125   Ti62    1.983   1_554 S
O126   Ti56    1.994   1_455 S
O128   Ti63    1.969   1_554 S
O131   Ti64    1.970   1_554 S
O134   Ti65    1.949   1_554 S
O136   Ti66    1.983   1_554 S
O139   Ti67    1.983   1_554 S
O140   Ti60    2.001   1_455 S
O143   Ti61    1.998   1_455 S
O158   Ti66    1.921   1_455 S
O161   Ti67    1.935   1_455 S
