# generated using pymatgen
data_Li12La20Ti36(NO35)3
_symmetry_space_group_name_H-M   'P 1'
_cell_length_a   11.63600000
_cell_length_b   15.81000000
_cell_length_c   11.63600000
_cell_angle_alpha   90.00000000
_cell_angle_beta   90.00000000
_cell_angle_gamma   90.00000000
_symmetry_Int_Tables_number   1
_chemical_formula_structural   Li12La20Ti36(NO35)3
_chemical_formula_sum   'Li12 La20 Ti36 N3 O105'
_cell_volume   2140.61860176
_cell_formula_units_Z   1
loop_
 _symmetry_equiv_pos_site_id
 _symmetry_equiv_pos_as_xyz
  1  'x, y, z'
loop_
 _atom_site_type_symbol
 _atom_site_label
 _atom_site_symmetry_multiplicity
 _atom_site_fract_x
 _atom_site_fract_y
 _atom_site_fract_z
 _atom_site_occupancy
  Li  Li0  1  0.33990000  0.02206000  0.94591000  1.0
  Li  Li1  1  0.00346000  0.99449000  0.22794000  1.0
  Li  Li2  1  0.33580000  0.00106000  0.22865000  1.0
  Li  Li3  1  0.83920000  0.00136000  0.00871000  1.0
  Li  Li4  1  0.00771000  0.00207000  0.55066000  1.0
  Li  Li5  1  0.66701000  0.99973000  0.79735000  1.0
  Li  Li6  1  0.33973000  0.52100000  0.94625000  1.0
  Li  Li7  1  0.00185000  0.50330000  0.22065000  1.0
  Li  Li8  1  0.33415000  0.50080000  0.22848000  1.0
  Li  Li9  1  0.83668000  0.50144000  0.00887000  1.0
  Li  Li10  1  0.00758000  0.50113000  0.55071000  1.0
  Li  Li11  1  0.66689000  0.50091000  0.79883000  1.0
  La  La12  1  0.99564000  0.24939000  0.00734000  1.0
  La  La13  1  0.33949000  0.25054000  0.01353000  1.0
  La  La14  1  0.67191000  0.25137000  0.01136000  1.0
  La  La15  1  0.99361000  0.25105000  0.34536000  1.0
  La  La16  1  0.34366000  0.25058000  0.34101000  1.0
  La  La17  1  0.66932000  0.25095000  0.34902000  1.0
  La  La18  1  0.00075000  0.25229000  0.67200000  1.0
  La  La19  1  0.33480000  0.00154000  0.66682000  1.0
  La  La20  1  0.33612000  0.25214000  0.67426000  1.0
  La  La21  1  0.67142000  0.25232000  0.67613000  1.0
  La  La22  1  0.99896000  0.75105000  0.00991000  1.0
  La  La23  1  0.33507000  0.75126000  0.01403000  1.0
  La  La24  1  0.67102000  0.75131000  0.01058000  1.0
  La  La25  1  0.99656000  0.75065000  0.34215000  1.0
  La  La26  1  0.33861000  0.75094000  0.33810000  1.0
  La  La27  1  0.66925000  0.75100000  0.34944000  1.0
  La  La28  1  0.00122000  0.75224000  0.67187000  1.0
  La  La29  1  0.33481000  0.50109000  0.66699000  1.0
  La  La30  1  0.33495000  0.75245000  0.67417000  1.0
  La  La31  1  0.66963000  0.75242000  0.67636000  1.0
  Ti  Ti32  1  0.16644000  0.12121000  0.17246000  1.0
  Ti  Ti33  1  0.16630000  0.38077000  0.17388000  1.0
  Ti  Ti34  1  0.50688000  0.11957000  0.17462000  1.0
  Ti  Ti35  1  0.50612000  0.38135000  0.17563000  1.0
  Ti  Ti36  1  0.83228000  0.12096000  0.18031000  1.0
  Ti  Ti37  1  0.83250000  0.38134000  0.18000000  1.0
  Ti  Ti38  1  0.17007000  0.37859000  0.50165000  1.0
  Ti  Ti39  1  0.50565000  0.12016000  0.50538000  1.0
  Ti  Ti40  1  0.50556000  0.38255000  0.50593000  1.0
  Ti  Ti41  1  0.83202000  0.11934000  0.51066000  1.0
  Ti  Ti42  1  0.83224000  0.38380000  0.51007000  1.0
  Ti  Ti43  1  0.16650000  0.12543000  0.84075000  1.0
  Ti  Ti44  1  0.16915000  0.38225000  0.84363000  1.0
  Ti  Ti45  1  0.50466000  0.12540000  0.84254000  1.0
  Ti  Ti46  1  0.50210000  0.38032000  0.84580000  1.0
  Ti  Ti47  1  0.83705000  0.12109000  0.83895000  1.0
  Ti  Ti48  1  0.83920000  0.38069000  0.83939000  1.0
  Ti  Ti49  1  0.17051000  0.12423000  0.50103000  1.0
  Ti  Ti50  1  0.16827000  0.62271000  0.17321000  1.0
  Ti  Ti51  1  0.16905000  0.87888000  0.17356000  1.0
  Ti  Ti52  1  0.50576000  0.62021000  0.17435000  1.0
  Ti  Ti53  1  0.50576000  0.88141000  0.17571000  1.0
  Ti  Ti54  1  0.83066000  0.62227000  0.17963000  1.0
  Ti  Ti55  1  0.83132000  0.87923000  0.17898000  1.0
  Ti  Ti56  1  0.16955000  0.87940000  0.50225000  1.0
  Ti  Ti57  1  0.50448000  0.62111000  0.50476000  1.0
  Ti  Ti58  1  0.50486000  0.88169000  0.50567000  1.0
  Ti  Ti59  1  0.83272000  0.62005000  0.51077000  1.0
  Ti  Ti60  1  0.83301000  0.88312000  0.50974000  1.0
  Ti  Ti61  1  0.16601000  0.62419000  0.84190000  1.0
  Ti  Ti62  1  0.16873000  0.88385000  0.84457000  1.0
  Ti  Ti63  1  0.50333000  0.62555000  0.84298000  1.0
  Ti  Ti64  1  0.50117000  0.88027000  0.84611000  1.0
  Ti  Ti65  1  0.83809000  0.62206000  0.83887000  1.0
  Ti  Ti66  1  0.83913000  0.87993000  0.83923000  1.0
  Ti  Ti67  1  0.16975000  0.62336000  0.50204000  1.0
  N  N68  1  0.16532000  0.24965000  0.17588000  1.0
  N  N69  1  0.00039000  0.12973000  0.18055000  1.0
  O  O70  1  0.16465000  0.99871000  0.19157000  1.0
  O  O71  1  0.16768000  0.14751000  0.01024000  1
  O  O72  1  0.99992000  0.37893000  0.18714000  1.0
  O  O73  1  0.16267000  0.35332000  0.01253000  1
  O  O74  1  0.33945000  0.11924000  0.17598000  1
  O  O75  1  0.50723000  0.00010000  0.17946000  1
  O  O76  1  0.51182000  0.14154000  0.00966000  1
  O  O77  1  0.33360000  0.37965000  0.17930000  1.0
  O  O78  1  0.47593000  0.25180000  0.17765000  1
  O  O79  1  0.50832000  0.35935000  0.01053000  1.0
  O  O80  1  0.84306000  0.00069000  0.17607000  1.0
  O  O81  1  0.82632000  0.12600000  0.00735000  1.0
  O  O82  1  0.66902000  0.35220000  0.17779000  1.0
  O  O83  1  0.85488000  0.25169000  0.16865000  1
  O  O84  1  0.83408000  0.37631000  0.00999000  1.0
  O  O85  1  0.00446000  0.12666000  0.51318000  1.0
  O  O86  1  0.17722000  0.00146000  0.50554000  1
  O  O87  1  0.17104000  0.15192000  0.34328000  1.0
  O  O88  1  0.00416000  0.37623000  0.51569000  1.0
  O  O89  1  0.15996000  0.25112000  0.53606000  1.0
  O  O90  1  0.16750000  0.35056000  0.34364000  1.0
  O  O91  1  0.33561000  0.13995000  0.50457000  1
  O  O92  1  0.48545000  0.00085000  0.51060000  1
  O  O93  1  0.50845000  0.14149000  0.34473000  1.0
  O  O94  1  0.33519000  0.36264000  0.50513000  1.0
  O  O95  1  0.50610000  0.25134000  0.52469000  1.0
  O  O96  1  0.50764000  0.36104000  0.34463000  1.0
  O  O97  1  0.66809000  0.13708000  0.52247000  1.0
  O  O98  1  0.84178000  0.00128000  0.52219000  1.0
  O  O99  1  0.82720000  0.13766000  0.34670000  1.0
  O  O100  1  0.66842000  0.36622000  0.52048000  1.0
  O  O101  1  0.84480000  0.25193000  0.50321000  1.0
  O  O102  1  0.82996000  0.36550000  0.34546000  1.0
  O  O103  1  0.00181000  0.13873000  0.84242000  1.0
  O  O104  1  0.19860000  0.00150000  0.85567000  1.0
  O  O105  1  0.18865000  0.11685000  0.67830000  1.0
  O  O106  1  0.00356000  0.36208000  0.84062000  1.0
  O  O107  1  0.16835000  0.24909000  0.81877000  1.0
  O  O108  1  0.18788000  0.38399000  0.67959000  1.0
  N  N109  1  0.33713000  0.13791000  0.86024000  1
  O  O110  1  0.48177000  0.00100000  0.84809000  1.0
  O  O111  1  0.47618000  0.12313000  0.67726000  1.0
  O  O112  1  0.33573000  0.35751000  0.85614000  1.0
  O  O113  1  0.51691000  0.25031000  0.82882000  1.0
  O  O114  1  0.47875000  0.37856000  0.67793000  1.0
  O  O115  1  0.66690000  0.12124000  0.82431000  1.0
  O  O116  1  0.83369000  0.00045000  0.83916000  1.0
  O  O117  1  0.83969000  0.14849000  0.67709000  1.0
  O  O118  1  0.66621000  0.37969000  0.83104000  1.0
  O  O119  1  0.82105000  0.25144000  0.85913000  1.0
  O  O120  1  0.83775000  0.35590000  0.67766000  1.0
  O  O121  1  0.66810000  0.15434000  0.17868000  1.0
  O  O122  1  0.00113000  0.63128000  0.18535000  1.0
  O  O123  1  0.16564000  0.50256000  0.19082000  1.0
  O  O124  1  0.15991000  0.64089000  0.01094000  1.0
  O  O125  1  0.00224000  0.86977000  0.18486000  1.0
  O  O126  1  0.18242000  0.75064000  0.17340000  1.0
  O  O127  1  0.16264000  0.85879000  0.01052000  1.0
  O  O128  1  0.33563000  0.62026000  0.17708000  1.0
  O  O129  1  0.50248000  0.50062000  0.17878000  1.0
  O  O130  1  0.51067000  0.64134000  0.01096000  1.0
  O  O131  1  0.33593000  0.88129000  0.18027000  1.0
  O  O132  1  0.47607000  0.75049000  0.17711000  1.0
  O  O133  1  0.50782000  0.85872000  0.01096000  1.0
  O  O134  1  0.83652000  0.50220000  0.17573000  1.0
  O  O135  1  0.83386000  0.62604000  0.00932000  1.0
  O  O136  1  0.66919000  0.85194000  0.17779000  1.0
  O  O137  1  0.85029000  0.75144000  0.16661000  1.0
  O  O138  1  0.83434000  0.87685000  0.00976000  1.0
  O  O139  1  0.00444000  0.62558000  0.51811000  1.0
  O  O140  1  0.17711000  0.50065000  0.50601000  1.0
  O  O141  1  0.16625000  0.64867000  0.34478000  1.0
  O  O142  1  0.00422000  0.87731000  0.51752000  1.0
  O  O143  1  0.15916000  0.75098000  0.53519000  1.0
  O  O144  1  0.16620000  0.85291000  0.34504000  1.0
  O  O145  1  0.33530000  0.64049000  0.50363000  1.0
  O  O146  1  0.48542000  0.50157000  0.51133000  1.0
  O  O147  1  0.50753000  0.64222000  0.34436000  1.0
  O  O148  1  0.33525000  0.86214000  0.50528000  1.0
  O  O149  1  0.50637000  0.75108000  0.52757000  1.0
  O  O150  1  0.50755000  0.85915000  0.34459000  1.0
  O  O151  1  0.66851000  0.63803000  0.51924000  1.0
  O  O152  1  0.84174000  0.50178000  0.52183000  1.0
  O  O153  1  0.83154000  0.63755000  0.34513000  1.0
  O  O154  1  0.66887000  0.86483000  0.51854000  1.0
  O  O155  1  0.84800000  0.75167000  0.50116000  1.0
  O  O156  1  0.83196000  0.86591000  0.34456000  1.0
  O  O157  1  0.00173000  0.63917000  0.83838000  1.0
  O  O158  1  0.19873000  0.49978000  0.85593000  1.0
  O  O159  1  0.19122000  0.61721000  0.67942000  1.0
  O  O160  1  0.00343000  0.86122000  0.84015000  1.0
  O  O161  1  0.16969000  0.74856000  0.82391000  1.0
  O  O162  1  0.18824000  0.88355000  0.67990000  1.0
  O  O163  1  0.33637000  0.63670000  0.86448000  1.0
  O  O164  1  0.48156000  0.50081000  0.84772000  1.0
  O  O165  1  0.47636000  0.62297000  0.67832000  1.0
  O  O166  1  0.33553000  0.85885000  0.85603000  1.0
  O  O167  1  0.51504000  0.75031000  0.82866000  1.0
  O  O168  1  0.47972000  0.87914000  0.67810000  1.0
  O  O169  1  0.66666667  0.62235000  0.82974000  1.0
  O  O170  1  0.83315000  0.50123000  0.83993000  1.0
  O  O171  1  0.83635000  0.64927000  0.67732000  1.0
  O  O172  1  0.66602000  0.87859000  0.83217000  1.0
  O  O173  1  0.82189000  0.75117000  0.86134000  1.0
  O  O174  1  0.83649000  0.85451000  0.67758000  1.0
  O  O175  1  0.66895000  0.65063000  0.17856000  1.0
