# generated using pymatgen
data_Li12La20Ti36O107
_symmetry_space_group_name_H-M   'P 1'
_cell_length_a   11.63600000
_cell_length_b   15.81000000
_cell_length_c   11.63600000
_cell_angle_alpha   90.00000000
_cell_angle_beta   90.00000000
_cell_angle_gamma   90.00000000
_symmetry_Int_Tables_number   1
_chemical_formula_structural   Li12La20Ti36O107
_chemical_formula_sum   'Li12 La20 Ti36 O107'
_cell_volume   2140.61860176
_cell_formula_units_Z   1
loop_
 _symmetry_equiv_pos_site_id
 _symmetry_equiv_pos_as_xyz
  1  'x, y, z'
loop_
 _atom_site_type_symbol
 _atom_site_label
 _atom_site_symmetry_multiplicity
 _atom_site_fract_x
 _atom_site_fract_y
 _atom_site_fract_z
 _atom_site_occupancy
  Li  Li0  1  0.33845000  0.02077000  0.94545000  1.0
  Li  Li1  1  0.00257000  0.00106000  0.22145000  1.0
  Li  Li2  1  0.33455000  0.00102000  0.22924000  1.0
  Li  Li3  1  0.84050000  0.00150000  0.00851000  1.0
  Li  Li4  1  0.00705000  0.00143000  0.55213000  1.0
  Li  Li5  1  0.66634000  0.00049000  0.80099000  1.0
  Li  Li6  1  0.33845000  0.52077000  0.94545000  1.0
  Li  Li7  1  0.00257000  0.50106000  0.22145000  1.0
  Li  Li8  1  0.33455000  0.50102000  0.22924000  1.0
  Li  Li9  1  0.84050000  0.50150000  0.00851000  1.0
  Li  Li10  1  0.00705000  0.50143000  0.55213000  1.0
  Li  Li11  1  0.66634000  0.50048000  0.80099000  1.0
  La  La12  1  0.99902000  0.25133000  0.00996000  1.0
  La  La13  1  0.33472000  0.25156000  0.01413000  1.0
  La  La14  1  0.67157000  0.25162000  0.01073000  1.0
  La  La15  1  0.99653000  0.25090000  0.34169000  1.0
  La  La16  1  0.33836000  0.25107000  0.33791000  1.0
  La  La17  1  0.66959000  0.25109000  0.34930000  1.0
  La  La18  1  0.00088000  0.25223000  0.67138000  1.0
  La  La19  1  0.33470000  0.00119000  0.66695000  1.0
  La  La20  1  0.33524000  0.25241000  0.67384000  1.0
  La  La21  1  0.66972000  0.25241000  0.67616000  1.0
  La  La22  1  0.99902000  0.75133000  0.00996000  1.0
  La  La23  1  0.33472000  0.75156000  0.01413000  1.0
  La  La24  1  0.67157000  0.75162000  0.01073000  1.0
  La  La25  1  0.99653000  0.75090000  0.34169000  1.0
  La  La26  1  0.33836000  0.75108000  0.33791000  1.0
  La  La27  1  0.66959000  0.75109000  0.34930000  1.0
  La  La28  1  0.00088000  0.75223000  0.67138000  1.0
  La  La29  1  0.33470000  0.50119000  0.66695000  1.0
  La  La30  1  0.33524000  0.75241000  0.67384000  1.0
  La  La31  1  0.66972000  0.75241000  0.67616000  1.0
  Ti  Ti32  1  0.16806000  0.12229000  0.17289000  1.0
  Ti  Ti33  1  0.16835000  0.37985000  0.17360000  1.0
  Ti  Ti34  1  0.50613000  0.12074000  0.17424000  1.0
  Ti  Ti35  1  0.50559000  0.38195000  0.17578000  1.0
  Ti  Ti36  1  0.83145000  0.12194000  0.17946000  1.0
  Ti  Ti37  1  0.83139000  0.38051000  0.17950000  1.0
  Ti  Ti38  1  0.16946000  0.37922000  0.50219000  1.0
  Ti  Ti39  1  0.50442000  0.12093000  0.50449000  1.0
  Ti  Ti40  1  0.50481000  0.38201000  0.50554000  1.0
  Ti  Ti41  1  0.83244000  0.11964000  0.51035000  1.0
  Ti  Ti42  1  0.83276000  0.38326000  0.50989000  1.0
  Ti  Ti43  1  0.16575000  0.12471000  0.84152000  1.0
  Ti  Ti44  1  0.16841000  0.38321000  0.84407000  1.0
  Ti  Ti45  1  0.50318000  0.12562000  0.84311000  1.0
  Ti  Ti46  1  0.50111000  0.38029000  0.84613000  1.0
  Ti  Ti47  1  0.83771000  0.12219000  0.83849000  1.0
  Ti  Ti48  1  0.83882000  0.38051000  0.83934000  1.0
  Ti  Ti49  1  0.16967000  0.12366000  0.50188000  1.0
  Ti  Ti50  1  0.16806000  0.62228000  0.17289000  1.0
  Ti  Ti51  1  0.16835000  0.87986000  0.17360000  1.0
  Ti  Ti52  1  0.50613000  0.62074000  0.17424000  1.0
  Ti  Ti53  1  0.50559000  0.88195000  0.17578000  1.0
  Ti  Ti54  1  0.83145000  0.62194000  0.17946000  1.0
  Ti  Ti55  1  0.83139000  0.88051000  0.17950000  1.0
  Ti  Ti56  1  0.16946000  0.87922000  0.50219000  1.0
  Ti  Ti57  1  0.50442000  0.62092000  0.50449000  1.0
  Ti  Ti58  1  0.50481000  0.88201000  0.50554000  1.0
  Ti  Ti59  1  0.83244000  0.61964000  0.51035000  1.0
  Ti  Ti60  1  0.83276000  0.88325000  0.50989000  1.0
  Ti  Ti61  1  0.16575000  0.62471000  0.84152000  1.0
  Ti  Ti62  1  0.16841000  0.88321000  0.84407000  1.0
  Ti  Ti63  1  0.50318000  0.62562000  0.84311000  1.0
  Ti  Ti64  1  0.50111000  0.88029000  0.84613000  1.0
  Ti  Ti65  1  0.83771000  0.62220000  0.83849000  1.0
  Ti  Ti66  1  0.83882000  0.88052000  0.83934000  1.0
  Ti  Ti67  1  0.16967000  0.62366000  0.50188000  1.0
  O  O68  1  0.00152000  0.13039000  0.18577000  1.0
  O  O69  1  0.16520000  0.00074000  0.18939000  1.0
  O  O70  1  0.15975000  0.13997000  0.01092000  1.0
  O  O71  1  0.00194000  0.37156000  0.18443000  1.0
  O  O72  1  0.18048000  0.25066000  0.17284000  1.0
  O  O73  1  0.16264000  0.35978000  0.01065000  1.0
  O  O74  1  0.33524000  0.11991000  0.17712000  1.0
  O  O75  1  0.50391000  0.00084000  0.17955000  1.0
  O  O76  1  0.51095000  0.14171000  0.01102000  1.0
  O  O77  1  0.33532000  0.38094000  0.18063000  1.0
  O  O78  1  0.47563000  0.25044000  0.17701000  1.0
  O  O79  1  0.50776000  0.35858000  0.01114000  1.0
  O  O80  1  0.84012000  0.00117000  0.17559000  1.0
  O  O81  1  0.83454000  0.12577000  0.00941000  1.0
  O  O82  1  0.66904000  0.35218000  0.17763000  1.0
  O  O83  1  0.85120000  0.25123000  0.16704000  1.0
  O  O84  1  0.83482000  0.37672000  0.00958000  1.0
  O  O85  1  0.00440000  0.12518000  0.51816000  1.0
  O  O86  1  0.17770000  0.00109000  0.50845000  1.0
  O  O87  1  0.16644000  0.14801000  0.34439000  1.0
  O  O88  1  0.00407000  0.37743000  0.51779000  1.0
  O  O89  1  0.15845000  0.25106000  0.53339000  1.0
  O  O90  1  0.16592000  0.35374000  0.34454000  1.0
  O  O91  1  0.33548000  0.14072000  0.50316000  1.0
  O  O92  1  0.48534000  0.00120000  0.50983000  1.0
  O  O93  1  0.50762000  0.14259000  0.34426000  1.0
  O  O94  1  0.33530000  0.36194000  0.50458000  1.0
  O  O95  1  0.50641000  0.25107000  0.52817000  1.0
  O  O96  1  0.50779000  0.35912000  0.34442000  1.0
  O  O97  1  0.66843000  0.13797000  0.51904000  1.0
  O  O98  1  0.84094000  0.00138000  0.52198000  1.0
  O  O99  1  0.83166000  0.13703000  0.34504000  1.0
  O  O100  1  0.66879000  0.36473000  0.51839000  1.0
  O  O101  1  0.84814000  0.25149000  0.50088000  1.0
  O  O102  1  0.83181000  0.36568000  0.34457000  1.0
  O  O103  1  0.00173000  0.13928000  0.83790000  1.0
  O  O104  1  0.19878000  0.00082000  0.85236000  1.0
  O  O105  1  0.19209000  0.11933000  0.67911000  1.0
  O  O106  1  0.00328000  0.36136000  0.83977000  1.0
  O  O107  1  0.16950000  0.24896000  0.82582000  1.0
  O  O108  1  0.18888000  0.38176000  0.67952000  1.0
  O  O109  1  0.48208000  0.00089000  0.84888000  1.0
  O  O110  1  0.47626000  0.12227000  0.67825000  1.0
  O  O111  1  0.33582000  0.35883000  0.85619000  1.0
  O  O112  1  0.51541000  0.25030000  0.82800000  1.0
  O  O113  1  0.47967000  0.37957000  0.67793000  1.0
  O  O114  1  0.66682000  0.12220000  0.83004000  1.0
  O  O115  1  0.83337000  0.00101000  0.83939000  1.0
  O  O116  1  0.83630000  0.14899000  0.67708000  1.0
  O  O117  1  0.66618000  0.37869000  0.83258000  1.0
  O  O118  1  0.82187000  0.25101000  0.86120000  1.0
  O  O119  1  0.83643000  0.35451000  0.67755000  1.0
  O  O120  1  0.66948000  0.15026000  0.17853000  1.0
  O  O121  1  0.00152000  0.63040000  0.18577000  1.0
  O  O122  1  0.16520000  0.50074000  0.18939000  1.0
  O  O123  1  0.15975000  0.63997000  0.01092000  1.0
  O  O124  1  0.00194000  0.87155000  0.18443000  1.0
  O  O125  1  0.18048000  0.75066000  0.17284000  1.0
  O  O126  1  0.16264000  0.85978000  0.01065000  1.0
  O  O127  1  0.33524000  0.61991000  0.17712000  1.0
  O  O128  1  0.50391000  0.50084000  0.17955000  1.0
  O  O129  1  0.51095000  0.64171000  0.01102000  1.0
  O  O130  1  0.33532000  0.88094000  0.18063000  1.0
  O  O131  1  0.47563000  0.75044000  0.17701000  1.0
  O  O132  1  0.50776000  0.85859000  0.01114000  1.0
  O  O133  1  0.84012000  0.50117000  0.17559000  1.0
  O  O134  1  0.83454000  0.62577000  0.00941000  1.0
  O  O135  1  0.66904000  0.85218000  0.17763000  1.0
  O  O136  1  0.85120000  0.75123000  0.16704000  1.0
  O  O137  1  0.83482000  0.87672000  0.00958000  1.0
  O  O138  1  0.00440000  0.62518000  0.51816000  1.0
  O  O139  1  0.17770000  0.50109000  0.50845000  1.0
  O  O140  1  0.16644000  0.64801000  0.34439000  1.0
  O  O141  1  0.00407000  0.87743000  0.51779000  1.0
  O  O142  1  0.15845000  0.75106000  0.53339000  1.0
  O  O143  1  0.16592000  0.85374000  0.34454000  1.0
  O  O144  1  0.33548000  0.64072000  0.50316000  1.0
  O  O145  1  0.48534000  0.50119000  0.50983000  1.0
  O  O146  1  0.50762000  0.64260000  0.34426000  1.0
  O  O147  1  0.33530000  0.86194000  0.50458000  1.0
  O  O148  1  0.50641000  0.75107000  0.52817000  1.0
  O  O149  1  0.50779000  0.85911000  0.34442000  1.0
  O  O150  1  0.66843000  0.63797000  0.51904000  1.0
  O  O151  1  0.84094000  0.50138000  0.52198000  1.0
  O  O152  1  0.83166000  0.63704000  0.34504000  1.0
  O  O153  1  0.66879000  0.86472000  0.51839000  1.0
  O  O154  1  0.84814000  0.75149000  0.50088000  1.0
  O  O155  1  0.83181000  0.86568000  0.34457000  1.0
  O  O156  1  0.00173000  0.63927000  0.83790000  1.0
  O  O157  1  0.19878000  0.50082000  0.85236000  1.0
  O  O158  1  0.19209000  0.61933000  0.67911000  1.0
  O  O159  1  0.00328000  0.86137000  0.83977000  1.0
  O  O160  1  0.16950000  0.74896000  0.82582000  1.0
  O  O161  1  0.18888000  0.88176000  0.67952000  1.0
  O  O162  1  0.33653000  0.63706000  0.86473000  1.0
  O  O163  1  0.48208000  0.50089000  0.84888000  1.0
  O  O164  1  0.47626000  0.62227000  0.67825000  1.0
  O  O165  1  0.33582000  0.85883000  0.85619000  1.0
  O  O166  1  0.51541000  0.75030000  0.82800000  1.0
  O  O167  1  0.47967000  0.87957000  0.67793000  1.0
  O  O168  1  0.66682000  0.62221000  0.83004000  1.0
  O  O169  1  0.83337000  0.50101000  0.83939000  1.0
  O  O170  1  0.83630000  0.64898000  0.67708000  1.0
  O  O171  1  0.66618000  0.87869000  0.83258000  1.0
  O  O172  1  0.82187000  0.75101000  0.86120000  1.0
  O  O173  1  0.83643000  0.85450000  0.67755000  1.0
  O  O174  1  0.66948000  0.65026000  0.17853000  1.0
