# generated using pymatgen
data_Li12La20Ti36N3O104
_symmetry_space_group_name_H-M   'P 1'
_cell_length_a   11.63600000
_cell_length_b   15.81000000
_cell_length_c   11.63600000
_cell_angle_alpha   90.00000000
_cell_angle_beta   90.00000000
_cell_angle_gamma   90.00000000
_symmetry_Int_Tables_number   1
_chemical_formula_structural   Li12La20Ti36N3O104
_chemical_formula_sum   'Li12 La20 Ti36 N3 O104'
_cell_volume   2140.61860176
_cell_formula_units_Z   1
loop_
 _symmetry_equiv_pos_site_id
 _symmetry_equiv_pos_as_xyz
  1  'x, y, z'
loop_
 _atom_site_type_symbol
 _atom_site_label
 _atom_site_symmetry_multiplicity
 _atom_site_fract_x
 _atom_site_fract_y
 _atom_site_fract_z
 _atom_site_occupancy
  Li  Li0  1  0.33658000  0.02361000  0.94707000  1.0
  Li  Li1  1  0.00398000  0.99368000  0.22687000  1.0
  Li  Li2  1  0.33727000  0.99884000  0.23225000  1.0
  Li  Li3  1  0.84021000  0.00106000  0.00851000  1.0
  Li  Li4  1  0.00741000  0.00142000  0.55108000  1.0
  Li  Li5  1  0.66785000  0.00005000  0.79587000  1.0
  Li  Li6  1  0.33954000  0.52190000  0.94631000  1.0
  Li  Li7  1  0.00221000  0.50275000  0.21885000  1.0
  Li  Li8  1  0.33385000  0.50061000  0.22834000  1.0
  Li  Li9  1  0.83476000  0.50166000  0.00860000  1.0
  Li  Li10  1  0.00781000  0.50115000  0.54941000  1.0
  Li  Li11  1  0.66653000  0.50139000  0.79717000  1.0
  La  La12  1  0.99620000  0.25485000  0.00773000  1.0
  La  La13  1  0.33948000  0.25304000  0.01389000  1.0
  La  La14  1  0.67091000  0.25220000  0.01064000  1.0
  La  La15  1  0.99510000  0.25354000  0.34518000  1.0
  La  La16  1  0.34199000  0.24994000  0.34050000  1.0
  La  La17  1  0.66966000  0.25140000  0.35020000  1.0
  La  La18  1  0.00048000  0.25259000  0.67195000  1.0
  La  La19  1  0.33370000  0.00128000  0.66750000  1.0
  La  La20  1  0.33482000  0.25175000  0.67445000  1.0
  La  La21  1  0.67027000  0.25213000  0.67598000  1.0
  La  La22  1  0.99967000  0.75137000  0.01018000  1.0
  La  La23  1  0.33500000  0.75140000  0.01433000  1.0
  La  La24  1  0.67108000  0.75101000  0.01058000  1.0
  La  La25  1  0.99672000  0.75041000  0.34226000  1.0
  La  La26  1  0.33879000  0.75061000  0.33823000  1.0
  La  La27  1  0.66916000  0.75088000  0.34961000  1.0
  La  La28  1  0.00149000  0.75246000  0.67201000  1.0
  La  La29  1  0.33449000  0.50169000  0.66698000  1.0
  La  La30  1  0.33476000  0.75248000  0.67438000  1.0
  La  La31  1  0.66956000  0.75273000  0.67643000  1.0
  Ti  Ti32  1  0.17168000  0.12041000  0.17689000  1.0
  Ti  Ti33  1  0.16682000  0.38028000  0.17244000  1.0
  Ti  Ti34  1  0.50715000  0.11908000  0.17496000  1.0
  Ti  Ti35  1  0.50601000  0.38136000  0.17640000  1.0
  Ti  Ti36  1  0.82913000  0.12099000  0.17937000  1.0
  Ti  Ti37  1  0.83148000  0.38144000  0.18035000  1.0
  Ti  Ti38  1  0.17051000  0.37877000  0.50139000  1.0
  Ti  Ti39  1  0.50472000  0.12040000  0.50476000  1.0
  Ti  Ti40  1  0.50516000  0.38259000  0.50613000  1.0
  Ti  Ti41  1  0.83269000  0.11950000  0.51129000  1.0
  Ti  Ti42  1  0.83195000  0.38428000  0.51036000  1.0
  Ti  Ti43  1  0.16461000  0.12612000  0.84364000  1.0
  Ti  Ti44  1  0.16855000  0.38320000  0.84258000  1.0
  Ti  Ti45  1  0.50389000  0.12535000  0.84337000  1.0
  Ti  Ti46  1  0.50147000  0.38079000  0.84532000  1.0
  Ti  Ti47  1  0.83704000  0.12186000  0.83921000  1.0
  Ti  Ti48  1  0.83792000  0.38146000  0.83877000  1.0
  Ti  Ti49  1  0.16958000  0.12400000  0.50430000  1.0
  Ti  Ti50  1  0.16840000  0.62243000  0.17307000  1.0
  Ti  Ti51  1  0.16942000  0.87886000  0.17457000  1.0
  Ti  Ti52  1  0.50595000  0.62016000  0.17447000  1.0
  Ti  Ti53  1  0.50622000  0.88095000  0.17559000  1.0
  Ti  Ti54  1  0.83092000  0.62235000  0.17979000  1.0
  Ti  Ti55  1  0.83140000  0.87919000  0.17900000  1.0
  Ti  Ti56  1  0.16957000  0.87918000  0.50252000  1.0
  Ti  Ti57  1  0.50462000  0.62118000  0.50485000  1.0
  Ti  Ti58  1  0.50474000  0.88185000  0.50573000  1.0
  Ti  Ti59  1  0.83273000  0.62038000  0.51103000  1.0
  Ti  Ti60  1  0.83282000  0.88312000  0.50967000  1.0
  Ti  Ti61  1  0.16584000  0.62437000  0.84175000  1.0
  Ti  Ti62  1  0.16874000  0.88379000  0.84473000  1.0
  Ti  Ti63  1  0.50336000  0.62600000  0.84299000  1.0
  Ti  Ti64  1  0.50103000  0.88067000  0.84624000  1.0
  Ti  Ti65  1  0.83798000  0.62263000  0.83899000  1.0
  Ti  Ti66  1  0.83904000  0.88033000  0.83929000  1.0
  Ti  Ti67  1  0.16978000  0.62348000  0.50189000  1.0
  N  N68  1  0.16703000  0.24769000  0.17012000  1.0
  N  N69  1  0.00302000  0.12685000  0.17453000  1.0
  N  N70  1  0.16172000  0.14063000  0.01389000  1.0
  O  O71  1  0.16681000  0.99674000  0.19790000  1.0
  O  O72  1  0.00018000  0.37739000  0.18525000  1.0
  O  O73  1  0.16294000  0.35895000  0.00995000  1.0
  O  O74  1  0.34123000  0.11814000  0.18261000  1.0
  O  O75  1  0.50807000  0.99974000  0.17961000  1.0
  O  O76  1  0.51176000  0.14103000  0.01114000  1.0
  O  O77  1  0.33376000  0.37916000  0.17878000  1.0
  O  O78  1  0.47576000  0.25159000  0.17706000  1.0
  O  O79  1  0.50808000  0.35990000  0.01042000  1.0
  O  O80  1  0.84179000  0.00062000  0.17585000  1.0
  O  O81  1  0.82809000  0.12559000  0.00827000  1.0
  O  O82  1  0.66896000  0.35194000  0.17746000  1.0
  O  O83  1  0.85509000  0.25166000  0.16875000  1.0
  O  O84  1  0.83322000  0.37661000  0.00934000  1.0
  O  O85  1  0.00429000  0.12661000  0.51893000  1.0
  O  O86  1  0.17689000  0.00105000  0.50645000  1.0
  O  O87  1  0.16568000  0.15229000  0.34773000  1.0
  O  O88  1  0.00392000  0.37599000  0.51371000  1.0
  O  O89  1  0.15989000  0.25209000  0.53708000  1.0
  O  O90  1  0.16769000  0.34998000  0.34257000  1.0
  O  O91  1  0.33637000  0.14048000  0.50197000  1.0
  O  O92  1  0.48553000  0.00104000  0.51094000  1.0
  O  O93  1  0.51063000  0.14201000  0.34478000  1.0
  O  O94  1  0.33543000  0.36229000  0.50421000  1.0
  O  O95  1  0.50737000  0.25111000  0.52550000  1.0
  O  O96  1  0.50799000  0.36024000  0.34456000  1.0
  O  O97  1  0.66908000  0.13672000  0.51969000  1.0
  O  O98  1  0.84188000  0.00131000  0.52192000  1.0
  O  O99  1  0.83553000  0.13613000  0.34417000  1.0
  O  O100  1  0.66842000  0.36640000  0.51981000  1.0
  O  O101  1  0.84419000  0.25166000  0.50092000  1.0
  O  O102  1  0.82990000  0.36653000  0.34498000  1.0
  O  O103  1  0.00055000  0.13941000  0.83978000  1.0
  O  O104  1  0.19360000  0.11836000  0.67772000  1.0
  O  O105  1  0.00264000  0.36326000  0.83972000  1.0
  O  O106  1  0.16667000  0.25025000  0.81920000  1.0
  O  O107  1  0.18765000  0.38499000  0.67828000  1.0
  O  O108  1  0.33583000  0.13965000  0.86484000  1.0
  O  O109  1  0.47946000  0.00123000  0.84856000  1.0
  O  O110  1  0.47528000  0.12345000  0.67849000  1.0
  O  O111  1  0.33569000  0.35737000  0.85468000  1.0
  O  O112  1  0.51743000  0.25036000  0.83021000  1.0
  O  O113  1  0.47916000  0.37843000  0.67755000  1.0
  O  O114  1  0.66611000  0.12098000  0.82631000  1.0
  O  O115  1  0.83400000  0.00087000  0.83900000  1.0
  O  O116  1  0.83719000  0.14894000  0.67702000  1.0
  O  O117  1  0.66587000  0.38010000  0.83024000  1.0
  O  O118  1  0.81997000  0.25155000  0.85937000  1.0
  O  O119  1  0.83742000  0.35535000  0.67687000  1.0
  O  O120  1  0.66893000  0.15427000  0.17944000  1.0
  O  O121  1  0.00124000  0.63065000  0.18517000  1.0
  O  O122  1  0.16578000  0.50188000  0.19064000  1.0
  O  O123  1  0.16014000  0.64027000  0.01070000  1.0
  O  O124  1  0.00223000  0.86973000  0.18437000  1.0
  O  O125  1  0.18203000  0.75001000  0.17271000  1.0
  O  O126  1  0.16312000  0.85937000  0.01060000  1.0
  O  O127  1  0.33570000  0.62001000  0.17701000  1.0
  O  O128  1  0.50227000  0.50029000  0.17951000  1.0
  O  O129  1  0.51077000  0.64067000  0.01097000  1.0
  O  O130  1  0.33673000  0.87999000  0.18025000  1.0
  O  O131  1  0.47693000  0.74994000  0.17712000  1.0
  O  O132  1  0.50804000  0.85856000  0.01090000  1.0
  O  O133  1  0.83681000  0.50194000  0.17547000  1.0
  O  O134  1  0.83336000  0.62598000  0.00925000  1.0
  O  O135  1  0.66947000  0.85140000  0.17777000  1.0
  O  O136  1  0.85066000  0.75115000  0.16656000  1.0
  O  O137  1  0.83441000  0.87679000  0.00961000  1.0
  O  O138  1  0.00438000  0.62562000  0.51768000  1.0
  O  O139  1  0.17707000  0.50068000  0.50515000  1.0
  O  O140  1  0.16644000  0.64844000  0.34452000  1.0
  O  O141  1  0.00419000  0.87688000  0.51720000  1.0
  O  O142  1  0.15931000  0.75062000  0.53504000  1.0
  O  O143  1  0.16641000  0.85140000  0.34535000  1.0
  O  O144  1  0.33541000  0.64021000  0.50367000  1.0
  O  O145  1  0.48550000  0.50141000  0.51123000  1.0
  O  O146  1  0.50768000  0.64190000  0.34445000  1.0
  O  O147  1  0.33539000  0.86217000  0.50507000  1.0
  O  O148  1  0.50651000  0.75102000  0.52706000  1.0
  O  O149  1  0.50774000  0.85923000  0.34459000  1.0
  O  O150  1  0.66858000  0.63784000  0.51949000  1.0
  O  O151  1  0.84179000  0.50184000  0.52257000  1.0
  O  O152  1  0.83150000  0.63742000  0.34515000  1.0
  O  O153  1  0.66890000  0.86493000  0.51854000  1.0
  O  O154  1  0.84757000  0.75159000  0.50108000  1.0
  O  O155  1  0.83206000  0.86579000  0.34446000  1.0
  O  O156  1  0.00157000  0.63911000  0.83857000  1.0
  O  O157  1  0.20012000  0.50063000  0.85407000  1.0
  O  O158  1  0.19105000  0.61745000  0.67903000  1.0
  O  O159  1  0.00333000  0.86128000  0.84034000  1.0
  O  O160  1  0.16896000  0.74849000  0.82411000  1.0
  O  O161  1  0.18815000  0.88228000  0.67943000  1.0
  O  O162  1  0.33653000  0.63766000  0.86400000  1.0
  O  O163  1  0.48100000  0.50098000  0.84736000  1.0
  O  O164  1  0.47657000  0.62318000  0.67825000  1.0
  O  O165  1  0.33558000  0.85801000  0.85550000  1.0
  O  O166  1  0.51607000  0.75042000  0.82924000  1.0
  O  O167  1  0.48020000  0.87880000  0.67819000  1.0
  O  O168  1  0.66666667  0.62238000  0.82944000  1.0
  O  O169  1  0.83258000  0.50146000  0.83932000  1.0
  O  O170  1  0.83657000  0.64951000  0.67729000  1.0
  O  O171  1  0.66594000  0.87939000  0.83197000  1.0
  O  O172  1  0.82144000  0.75127000  0.86115000  1.0
  O  O173  1  0.83664000  0.85468000  0.67754000  1.0
  O  O174  1  0.66913000  0.65023000  0.17867000  1.0
