data_NEB_F_U2_N2_OV0
_audit_creation_date              2022-03-21
_audit_creation_method            'Materials Studio'
_symmetry_space_group_name_H-M    'P1'
_symmetry_Int_Tables_number       1
_symmetry_cell_setting            triclinic
loop_
_symmetry_equiv_pos_as_xyz
  x,y,z
_cell_length_a                    11.6360
_cell_length_b                    15.8100
_cell_length_c                    11.6360
_cell_angle_alpha                 90.0000
_cell_angle_beta                  90.0000
_cell_angle_gamma                 90.0000
loop_
_atom_site_label
_atom_site_type_symbol
_atom_site_fract_x
_atom_site_fract_y
_atom_site_fract_z
_atom_site_U_iso_or_equiv
_atom_site_adp_type
_atom_site_occupancy
Li1    Li    0.33990   0.02206   0.94591   0.00000  Uiso   1.00
Li2    Li    0.00346   0.99449   0.22794   0.00000  Uiso   1.00
Li3    Li    0.33580   0.00106   0.22865   0.00000  Uiso   1.00
Li4    Li    0.83920   0.00136   0.00871   0.00000  Uiso   1.00
Li5    Li    0.00771   0.00207   0.55066   0.00000  Uiso   1.00
Li6    Li    0.66701   0.99973   0.79735   0.00000  Uiso   1.00
Li7    Li    0.33973   0.52100   0.94625   0.00000  Uiso   1.00
Li8    Li    0.00185   0.50330   0.22065   0.00000  Uiso   1.00
Li9    Li    0.33415   0.50080   0.22848   0.00000  Uiso   1.00
Li10   Li    0.83668   0.50144   0.00887   0.00000  Uiso   1.00
Li11   Li    0.00758   0.50113   0.55071   0.00000  Uiso   1.00
Li12   Li    0.66689   0.50091   0.79883   0.00000  Uiso   1.00
La13   La    0.99564   0.24939   0.00734   0.00000  Uiso   1.00
La14   La    0.33949   0.25054   0.01353   0.00000  Uiso   1.00
La15   La    0.67191   0.25137   0.01136   0.00000  Uiso   1.00
La16   La    0.99361   0.25105   0.34536   0.00000  Uiso   1.00
La17   La    0.34366   0.25058   0.34101   0.00000  Uiso   1.00
La18   La    0.66932   0.25095   0.34902   0.00000  Uiso   1.00
La19   La    0.00075   0.25229   0.67200   0.00000  Uiso   1.00
La20   La    0.33480   0.00154   0.66682   0.00000  Uiso   1.00
La21   La    0.33612   0.25214   0.67426   0.00000  Uiso   1.00
La22   La    0.67142   0.25232   0.67613   0.00000  Uiso   1.00
La23   La    0.99896   0.75105   0.00991   0.00000  Uiso   1.00
La24   La    0.33507   0.75126   0.01403   0.00000  Uiso   1.00
La25   La    0.67102   0.75131   0.01058   0.00000  Uiso   1.00
La26   La    0.99656   0.75065   0.34215   0.00000  Uiso   1.00
La27   La    0.33861   0.75094   0.33810   0.00000  Uiso   1.00
La28   La    0.66925   0.75100   0.34944   0.00000  Uiso   1.00
La29   La    0.00122   0.75224   0.67187   0.00000  Uiso   1.00
La30   La    0.33481   0.50109   0.66699   0.00000  Uiso   1.00
La31   La    0.33495   0.75245   0.67417   0.00000  Uiso   1.00
La32   La    0.66963   0.75242   0.67636   0.00000  Uiso   1.00
Ti33   Ti    0.16644   0.12121   0.17246   0.00000  Uiso   1.00
Ti34   Ti    0.16630   0.38077   0.17388   0.00000  Uiso   1.00
Ti35   Ti    0.50688   0.11957   0.17462   0.00000  Uiso   1.00
Ti36   Ti    0.50612   0.38135   0.17563   0.00000  Uiso   1.00
Ti37   Ti    0.83228   0.12096   0.18031   0.00000  Uiso   1.00
Ti38   Ti    0.83250   0.38134   0.18000   0.00000  Uiso   1.00
Ti39   Ti    0.17007   0.37859   0.50165   0.00000  Uiso   1.00
Ti40   Ti    0.50565   0.12016   0.50538   0.00000  Uiso   1.00
Ti41   Ti    0.50556   0.38255   0.50593   0.00000  Uiso   1.00
Ti42   Ti    0.83202   0.11934   0.51066   0.00000  Uiso   1.00
Ti43   Ti    0.83224   0.38380   0.51007   0.00000  Uiso   1.00
Ti44   Ti    0.16650   0.12543   0.84075   0.00000  Uiso   1.00
Ti45   Ti    0.16915   0.38225   0.84363   0.00000  Uiso   1.00
Ti46   Ti    0.50466   0.12540   0.84254   0.00000  Uiso   1.00
Ti47   Ti    0.50210   0.38032   0.84580   0.00000  Uiso   1.00
Ti48   Ti    0.83705   0.12109   0.83895   0.00000  Uiso   1.00
Ti49   Ti    0.83920   0.38069   0.83939   0.00000  Uiso   1.00
Ti50   Ti    0.17051   0.12423   0.50103   0.00000  Uiso   1.00
Ti51   Ti    0.16827   0.62271   0.17321   0.00000  Uiso   1.00
Ti52   Ti    0.16905   0.87888   0.17356   0.00000  Uiso   1.00
Ti53   Ti    0.50576   0.62021   0.17435   0.00000  Uiso   1.00
Ti54   Ti    0.50576   0.88141   0.17571   0.00000  Uiso   1.00
Ti55   Ti    0.83066   0.62227   0.17963   0.00000  Uiso   1.00
Ti56   Ti    0.83132   0.87923   0.17898   0.00000  Uiso   1.00
Ti57   Ti    0.16955   0.87940   0.50225   0.00000  Uiso   1.00
Ti58   Ti    0.50448   0.62111   0.50476   0.00000  Uiso   1.00
Ti59   Ti    0.50486   0.88169   0.50567   0.00000  Uiso   1.00
Ti60   Ti    0.83272   0.62005   0.51077   0.00000  Uiso   1.00
Ti61   Ti    0.83301   0.88312   0.50974   0.00000  Uiso   1.00
Ti62   Ti    0.16601   0.62419   0.84190   0.00000  Uiso   1.00
Ti63   Ti    0.16873   0.88385   0.84457   0.00000  Uiso   1.00
Ti64   Ti    0.50333   0.62555   0.84298   0.00000  Uiso   1.00
Ti65   Ti    0.50117   0.88027   0.84611   0.00000  Uiso   1.00
Ti66   Ti    0.83809   0.62206   0.83887   0.00000  Uiso   1.00
Ti67   Ti    0.83913   0.87993   0.83923   0.00000  Uiso   1.00
Ti68   Ti    0.16975   0.62336   0.50204   0.00000  Uiso   1.00
N69    N     0.16532   0.24965   0.17588   0.00000  Uiso   1.00
N70    N     0.00039   0.12973   0.18055   0.00000  Uiso   1.00
O71    O     0.16465   0.99871   0.19157   0.00000  Uiso   1.00
O72    O     0.16768   0.14751   0.01024   0.00000  Uiso   1.00
O73    O     0.99992   0.37893   0.18714   0.00000  Uiso   1.00
O74    O     0.16267   0.35332   0.01253   0.00000  Uiso   1.00
O75    O     0.33945   0.11924   0.17598   0.00000  Uiso   1.00
O76    O     0.50723   0.00010   0.17946   0.00000  Uiso   1.00
O77    O     0.51182   0.14154   0.00966   0.00000  Uiso   1.00
O78    O     0.33360   0.37965   0.17930   0.00000  Uiso   1.00
O79    O     0.47593   0.25180   0.17765   0.00000  Uiso   1.00
O80    O     0.50832   0.35935   0.01053   0.00000  Uiso   1.00
O81    O     0.84306   0.00069   0.17607   0.00000  Uiso   1.00
O82    O     0.82632   0.12600   0.00735   0.00000  Uiso   1.00
O83    O     0.66902   0.35220   0.17779   0.00000  Uiso   1.00
O84    O     0.85488   0.25169   0.16865   0.00000  Uiso   1.00
O85    O     0.83408   0.37631   0.00999   0.00000  Uiso   1.00
O86    O     0.00446   0.12666   0.51318   0.00000  Uiso   1.00
O87    O     0.17722   0.00146   0.50554   0.00000  Uiso   1.00
O88    O     0.17104   0.15192   0.34328   0.00000  Uiso   1.00
O89    O     0.00416   0.37623   0.51569   0.00000  Uiso   1.00
O90    O     0.15996   0.25112   0.53606   0.00000  Uiso   1.00
O91    O     0.16750   0.35056   0.34364   0.00000  Uiso   1.00
O92    O     0.33561   0.13995   0.50457   0.00000  Uiso   1.00
O93    O     0.48545   0.00085   0.51060   0.00000  Uiso   1.00
O94    O     0.50845   0.14149   0.34473   0.00000  Uiso   1.00
O95    O     0.33519   0.36264   0.50513   0.00000  Uiso   1.00
O96    O     0.50610   0.25134   0.52469   0.00000  Uiso   1.00
O97    O     0.50764   0.36104   0.34463   0.00000  Uiso   1.00
O98    O     0.66809   0.13708   0.52247   0.00000  Uiso   1.00
O99    O     0.84178   0.00128   0.52219   0.00000  Uiso   1.00
O100   O     0.82720   0.13766   0.34670   0.00000  Uiso   1.00
O101   O     0.66842   0.36622   0.52048   0.00000  Uiso   1.00
O102   O     0.84480   0.25193   0.50321   0.00000  Uiso   1.00
O103   O     0.82996   0.36550   0.34546   0.00000  Uiso   1.00
O104   O     0.00181   0.13873   0.84242   0.00000  Uiso   1.00
O105   O     0.19860   0.00150   0.85567   0.00000  Uiso   1.00
O106   O     0.18865   0.11685   0.67830   0.00000  Uiso   1.00
O107   O     0.00356   0.36208   0.84062   0.00000  Uiso   1.00
O108   O     0.16835   0.24909   0.81877   0.00000  Uiso   1.00
O109   O     0.18788   0.38399   0.67959   0.00000  Uiso   1.00
O110   O     0.33713   0.13791   0.86024   0.00000  Uiso   1.00
O111   O     0.48177   0.00100   0.84809   0.00000  Uiso   1.00
O112   O     0.47618   0.12313   0.67726   0.00000  Uiso   1.00
O113   O     0.33573   0.35751   0.85614   0.00000  Uiso   1.00
O114   O     0.51691   0.25031   0.82882   0.00000  Uiso   1.00
O115   O     0.47875   0.37856   0.67793   0.00000  Uiso   1.00
O116   O     0.66690   0.12124   0.82431   0.00000  Uiso   1.00
O117   O     0.83369   0.00045   0.83916   0.00000  Uiso   1.00
O118   O     0.83969   0.14849   0.67709   0.00000  Uiso   1.00
O119   O     0.66621   0.37969   0.83104   0.00000  Uiso   1.00
O120   O     0.82105   0.25144   0.85913   0.00000  Uiso   1.00
O121   O     0.83775   0.35590   0.67766   0.00000  Uiso   1.00
O122   O     0.66810   0.15434   0.17868   0.00000  Uiso   1.00
O123   O     0.00113   0.63128   0.18535   0.00000  Uiso   1.00
O124   O     0.16564   0.50256   0.19082   0.00000  Uiso   1.00
O125   O     0.15991   0.64089   0.01094   0.00000  Uiso   1.00
O126   O     0.00224   0.86977   0.18486   0.00000  Uiso   1.00
O127   O     0.18242   0.75064   0.17340   0.00000  Uiso   1.00
O128   O     0.16264   0.85879   0.01052   0.00000  Uiso   1.00
O129   O     0.33563   0.62026   0.17708   0.00000  Uiso   1.00
O130   O     0.50248   0.50062   0.17878   0.00000  Uiso   1.00
O131   O     0.51067   0.64134   0.01096   0.00000  Uiso   1.00
O132   O     0.33593   0.88129   0.18027   0.00000  Uiso   1.00
O133   O     0.47607   0.75049   0.17711   0.00000  Uiso   1.00
O134   O     0.50782   0.85872   0.01096   0.00000  Uiso   1.00
O135   O     0.83652   0.50220   0.17573   0.00000  Uiso   1.00
O136   O     0.83386   0.62604   0.00932   0.00000  Uiso   1.00
O137   O     0.66919   0.85194   0.17779   0.00000  Uiso   1.00
O138   O     0.85029   0.75144   0.16661   0.00000  Uiso   1.00
O139   O     0.83434   0.87685   0.00976   0.00000  Uiso   1.00
O140   O     0.00444   0.62558   0.51811   0.00000  Uiso   1.00
O141   O     0.17711   0.50065   0.50601   0.00000  Uiso   1.00
O142   O     0.16625   0.64867   0.34478   0.00000  Uiso   1.00
O143   O     0.00422   0.87731   0.51752   0.00000  Uiso   1.00
O144   O     0.15916   0.75098   0.53519   0.00000  Uiso   1.00
O145   O     0.16620   0.85291   0.34504   0.00000  Uiso   1.00
O146   O     0.33530   0.64049   0.50363   0.00000  Uiso   1.00
O147   O     0.48542   0.50157   0.51133   0.00000  Uiso   1.00
O148   O     0.50753   0.64222   0.34436   0.00000  Uiso   1.00
O149   O     0.33525   0.86214   0.50528   0.00000  Uiso   1.00
O150   O     0.50637   0.75108   0.52757   0.00000  Uiso   1.00
O151   O     0.50755   0.85915   0.34459   0.00000  Uiso   1.00
O152   O     0.66851   0.63803   0.51924   0.00000  Uiso   1.00
O153   O     0.84174   0.50178   0.52183   0.00000  Uiso   1.00
O154   O     0.83154   0.63755   0.34513   0.00000  Uiso   1.00
O155   O     0.66887   0.86483   0.51854   0.00000  Uiso   1.00
O156   O     0.84800   0.75167   0.50116   0.00000  Uiso   1.00
O157   O     0.83196   0.86591   0.34456   0.00000  Uiso   1.00
O158   O     0.00173   0.63917   0.83838   0.00000  Uiso   1.00
O159   O     0.19873   0.49978   0.85593   0.00000  Uiso   1.00
O160   O     0.19122   0.61721   0.67942   0.00000  Uiso   1.00
O161   O     0.00343   0.86122   0.84015   0.00000  Uiso   1.00
O162   O     0.16969   0.74856   0.82391   0.00000  Uiso   1.00
O163   O     0.18824   0.88355   0.67990   0.00000  Uiso   1.00
O164   O     0.33637   0.63670   0.86448   0.00000  Uiso   1.00
O165   O     0.48156   0.50081   0.84772   0.00000  Uiso   1.00
O166   O     0.47636   0.62297   0.67832   0.00000  Uiso   1.00
O167   O     0.33553   0.85885   0.85603   0.00000  Uiso   1.00
O168   O     0.51504   0.75031   0.82866   0.00000  Uiso   1.00
O169   O     0.47972   0.87914   0.67810   0.00000  Uiso   1.00
O170   O     0.66670   0.62235   0.82974   0.00000  Uiso   1.00
O171   O     0.83315   0.50123   0.83993   0.00000  Uiso   1.00
O172   O     0.83635   0.64927   0.67732   0.00000  Uiso   1.00
O173   O     0.66602   0.87859   0.83217   0.00000  Uiso   1.00
O174   O     0.82189   0.75117   0.86134   0.00000  Uiso   1.00
O175   O     0.83649   0.85451   0.67758   0.00000  Uiso   1.00
O176   O     0.66895   0.65063   0.17856   0.00000  Uiso   1.00
loop_
_geom_bond_atom_site_label_1
_geom_bond_atom_site_label_2
_geom_bond_distance
_geom_bond_site_symmetry_2
_ccdc_geom_bond_type
Ti33   N69     2.031   .     S
Ti33   N70     1.939   .     S
Ti33   O71     1.950   1_545 S
Ti33   O72     1.933   .     S
Ti33   O75     2.014   .     S
Ti33   O88     2.047   .     S
Ti34   N69     2.073   .     S
Ti34   O73     1.942   1_455 S
Ti34   O74     1.927   .     S
Ti34   O78     1.948   .     S
Ti34   O91     2.032   .     S
Ti34   O124    1.936   .     S
Ti35   O75     1.948   .     S
Ti35   O76     1.890   .     S
Ti35   O77     1.951   .     S
Ti35   O79     2.122   .     S
Ti35   O94     2.010   .     S
Ti35   O122    1.955   .     S
Ti36   O78     2.008   .     S
Ti36   O79     2.078   .     S
Ti36   O80     1.953   .     S
Ti36   O83     1.951   .     S
Ti36   O97     1.993   .     S
Ti36   O130    1.886   .     S
Ti37   N70     1.961   1_655 S
Ti37   O81     1.906   .     S
Ti37   O82     2.015   .     S
Ti37   O84     2.088   .     S
Ti37   O100    1.955   .     S
Ti37   O122    1.982   .     S
Ti38   O73     1.950   .     S
Ti38   O83     1.957   .     S
Ti38   O84     2.070   .     S
Ti38   O85     1.980   .     S
Ti38   O103    1.942   .     S
Ti38   O135    1.912   .     S
Ti39   O89     1.938   .     S
Ti39   O90     2.058   .     S
Ti39   O91     1.891   .     S
Ti39   O95     1.938   .     S
Ti39   O109    2.083   .     S
Ti39   O141    1.932   .     S
Ti40   O92     2.003   .     S
Ti40   O93     1.902   .     S
Ti40   O94     1.900   .     S
Ti40   O96     2.086   .     S
Ti40   O98     1.919   .     S
Ti40   O112    2.030   .     S
Ti41   O95     2.007   .     S
Ti41   O96     2.086   .     S
Ti41   O97     1.908   .     S
Ti41   O101    1.920   .     S
Ti41   O115    2.027   .     S
Ti41   O147    1.897   .     S
Ti42   O86     2.010   1_655 S
Ti42   O98     1.933   .     S
Ti42   O99     1.875   .     S
Ti42   O100    1.931   .     S
Ti42   O102    2.103   .     S
Ti42   O118    1.993   .     S
Ti43   O89     2.005   1_655 S
Ti43   O101    1.930   .     S
Ti43   O102    2.092   .     S
Ti43   O103    1.937   .     S
Ti43   O121    2.000   .     S
Ti43   O153    1.874   .     S
Ti44   O72     2.003   1_556 S
Ti44   O104    1.928   .     S
Ti44   O105    2.002   .     S
Ti44   O106    1.913   .     S
Ti44   O108    1.972   .     S
Ti44   O110    2.008   .     S
Ti45   O74     2.019   1_556 S
Ti45   O107    1.953   .     S
Ti45   O108    2.125   .     S
Ti45   O109    1.921   .     S
Ti45   O113    1.983   .     S
Ti45   O159    1.895   .     S
Ti46   O77     1.963   1_556 S
Ti46   O110    1.970   .     S
Ti46   O111    1.986   .     S
Ti46   O112    1.952   .     S
Ti46   O114    1.986   .     S
Ti46   O116    1.901   .     S
Ti47   O80     1.947   1_556 S
Ti47   O113    1.973   .     S
Ti47   O114    2.072   .     S
Ti47   O115    1.972   .     S
Ti47   O119    1.917   .     S
Ti47   O165    1.920   .     S
Ti48   O82     1.965   1_556 S
Ti48   O104    1.938   1_655 S
Ti48   O116    1.987   .     S
Ti48   O117    1.908   .     S
Ti48   O118    1.933   .     S
Ti48   O120    2.083   .     S
Ti49   O85     1.987   1_556 S
Ti49   O107    1.935   1_655 S
Ti49   O119    2.015   .     S
Ti49   O120    2.067   .     S
Ti49   O121    1.922   .     S
Ti49   O171    1.907   .     S
Ti50   O86     1.938   .     S
Ti50   O87     1.943   .     S
Ti50   O88     1.887   .     S
Ti50   O90     2.051   .     S
Ti50   O92     1.938   .     S
Ti50   O106    2.077   .     S
Ti51   O123    1.955   .     S
Ti51   O124    1.911   .     S
Ti51   O125    1.912   .     S
Ti51   O127    2.029   .     S
Ti51   O129    1.948   .     S
Ti51   O142    2.038   .     S
Ti52   O71     1.907   .     S
Ti52   O126    1.951   .     S
Ti52   O127    2.033   .     S
Ti52   O128    1.925   .     S
Ti52   O132    1.944   .     S
Ti52   O145    2.037   .     S
Ti53   O129    1.980   .     S
Ti53   O130    1.892   .     S
Ti53   O131    1.931   .     S
Ti53   O133    2.089   .     S
Ti53   O148    2.009   .     S
Ti53   O176    1.959   .     S
Ti54   O76     1.877   1_565 S
Ti54   O132    1.977   .     S
Ti54   O133    2.099   .     S
Ti54   O134    1.950   .     S
Ti54   O137    1.958   .     S
Ti54   O151    1.996   .     S
Ti55   O123    1.990   1_655 S
Ti55   O135    1.900   .     S
Ti55   O136    1.983   .     S
Ti55   O138    2.060   .     S
Ti55   O154    1.941   .     S
Ti55   O176    1.934   .     S
Ti56   O81     1.925   1_565 S
Ti56   O126    1.996   1_655 S
Ti56   O137    1.935   .     S
Ti56   O138    2.037   .     S
Ti56   O139    1.970   .     S
Ti56   O157    1.938   .     S
Ti57   O87     1.932   1_565 S
Ti57   O143    1.932   .     S
Ti57   O144    2.070   .     S
Ti57   O145    1.877   .     S
Ti57   O149    1.948   .     S
Ti57   O163    2.080   .     S
Ti58   O146    1.992   .     S
Ti58   O147    1.904   .     S
Ti58   O148    1.896   .     S
Ti58   O150    2.072   .     S
Ti58   O152    1.935   .     S
Ti58   O166    2.046   .     S
Ti59   O93     1.898   1_565 S
Ti59   O149    1.998   .     S
Ti59   O150    2.081   .     S
Ti59   O151    1.908   .     S
Ti59   O155    1.933   .     S
Ti59   O169    2.028   .     S
Ti60   O140    2.002   1_655 S
Ti60   O152    1.934   .     S
Ti60   O153    1.877   .     S
Ti60   O154    1.947   .     S
Ti60   O156    2.091   .     S
Ti60   O172    1.993   .     S
Ti61   O99     1.876   1_565 S
Ti61   O143    1.996   1_655 S
Ti61   O155    1.934   .     S
Ti61   O156    2.088   .     S
Ti61   O157    1.941   .     S
Ti61   O175    2.005   .     S
Ti62   O125    1.986   1_556 S
Ti62   O158    1.927   .     S
Ti62   O159    2.010   .     S
Ti62   O160    1.916   .     S
Ti62   O162    1.978   .     S
Ti62   O164    2.009   .     S
Ti63   O105    1.897   1_565 S
Ti63   O128    1.972   1_556 S
Ti63   O161    1.957   .     S
Ti63   O162    2.152   .     S
Ti63   O163    1.930   .     S
Ti63   O167    1.985   .     S
Ti64   O131    1.972   1_556 S
Ti64   O164    1.967   .     S
Ti64   O165    1.989   .     S
Ti64   O166    1.942   .     S
Ti64   O168    1.984   .     S
Ti64   O170    1.908   .     S
Ti65   O111    1.922   1_565 S
Ti65   O134    1.950   1_556 S
Ti65   O167    1.960   .     S
Ti65   O168    2.071   .     S
Ti65   O169    1.971   .     S
Ti65   O173    1.925   .     S
Ti66   O136    1.985   1_556 S
Ti66   O158    1.923   1_655 S
Ti66   O170    1.997   .     S
Ti66   O171    1.911   .     S
Ti66   O172    1.928   .     S
Ti66   O174    2.067   .     S
Ti67   O117    1.906   1_565 S
Ti67   O139    1.986   1_556 S
Ti67   O161    1.935   1_655 S
Ti67   O173    2.016   .     S
Ti67   O174    2.062   .     S
Ti67   O175    1.924   .     S
Ti68   O140    1.933   .     S
Ti68   O141    1.942   .     S
Ti68   O142    1.874   .     S
Ti68   O144    2.058   .     S
Ti68   O146    1.945   .     S
Ti68   O160    2.081   .     S
N70    Ti37    1.961   1_455 S
O71    Ti33    1.950   1_565 S
O72    Ti44    2.003   1_554 S
O73    Ti34    1.942   1_655 S
O74    Ti45    2.019   1_554 S
O76    Ti54    1.877   1_545 S
O77    Ti46    1.963   1_554 S
O80    Ti47    1.947   1_554 S
O81    Ti56    1.925   1_545 S
O82    Ti48    1.965   1_554 S
O85    Ti49    1.987   1_554 S
O86    Ti42    2.010   1_455 S
O87    Ti57    1.932   1_545 S
O89    Ti43    2.005   1_455 S
O93    Ti59    1.898   1_545 S
O99    Ti61    1.876   1_545 S
O104   Ti48    1.938   1_455 S
O105   Ti63    1.897   1_545 S
O107   Ti49    1.935   1_455 S
O111   Ti65    1.922   1_545 S
O117   Ti67    1.906   1_545 S
O123   Ti55    1.990   1_455 S
O125   Ti62    1.986   1_554 S
O126   Ti56    1.996   1_455 S
O128   Ti63    1.972   1_554 S
O131   Ti64    1.972   1_554 S
O134   Ti65    1.950   1_554 S
O136   Ti66    1.985   1_554 S
O139   Ti67    1.986   1_554 S
O140   Ti60    2.002   1_455 S
O143   Ti61    1.996   1_455 S
O158   Ti66    1.923   1_455 S
O161   Ti67    1.935   1_455 S
